
  EPA STORM WATER MANAGEMENT MODEL - VERSION 5.0 (Build 5.0.022)
  --------------------------------------------------------------

  
  *********************************************************
  NOTE: The summary statistics displayed in this report are
  based on results found at every computational time step,  
  not just on results from each reporting time step.
  *********************************************************
  
  ****************
  Analysis Options
  ****************
  Flow Units ............... CMS
  Process Models:
    Rainfall/Runoff ........ YES
    Snowmelt ............... NO
    Groundwater ............ NO
    Flow Routing ........... YES
    Ponding Allowed ........ YES
    Water Quality .......... NO
  Infiltration Method ...... CURVE_NUMBER
  Flow Routing Method ...... DYNWAVE
  Starting Date ............ JAN-01-2017 00:00:00
  Ending Date .............. JAN-01-2017 03:00:00
  Antecedent Dry Days ...... 10.0
  Report Time Step ......... 00:05:00
  Wet Time Step ............ 00:05:00
  Dry Time Step ............ 01:00:00
  Routing Time Step ........ 2.00 sec
  

  WARNING 03: negative offset ignored for Link 18966

  WARNING 03: negative offset ignored for Link 238245

  WARNING 03: negative offset ignored for Link 2382452

  WARNING 03: negative offset ignored for Link 2382453

  WARNING 03: negative offset ignored for Link 1882818969

  WARNING 03: negative offset ignored for Link 237242

  WARNING 02: maximum depth increased for Node 238_244
  
  *********************
  Control Actions Taken
  *********************

  
  **************************        Volume         Depth
  Runoff Quantity Continuity     hectare-m            mm
  **************************     ---------       -------
  Total Precipitation ......         1.637        35.030
  Evaporation Loss .........         0.000         0.000
  Infiltration Loss ........         0.107         2.282
  Surface Runoff ...........         1.390        29.734
  Final Surface Storage ....         0.162         3.471
  Continuity Error (%) .....        -1.307
  
  
  **************************        Volume        Volume
  Flow Routing Continuity        hectare-m      10^6 ltr
  **************************     ---------     ---------
  Dry Weather Inflow .......         0.000         0.000
  Wet Weather Inflow .......         1.390        13.898
  Groundwater Inflow .......         0.000         0.000
  RDII Inflow ..............         0.000         0.000
  External Inflow ..........         0.000         0.000
  External Outflow .........         1.346        13.462
  Internal Outflow .........         0.023         0.228
  Storage Losses ...........         0.000         0.000
  Initial Stored Volume ....         0.000         0.000
  Final Stored Volume ......         0.013         0.127
  Continuity Error (%) .....         0.584
  
  
  *************************
  Highest Continuity Errors
  *************************
  Node 18828 (2.48%)
  Node 238_245 (1.92%)
  Node 18775 (-1.39%)
  Node 42 (1.12%)
  
  
  ********************************
  Highest Flow Instability Indexes
  ********************************
  All links are stable.
  
  
  *************************
  Routing Time Step Summary
  *************************
  Minimum Time Step           :     2.00 sec
  Average Time Step           :     2.00 sec
  Maximum Time Step           :     2.00 sec
  Percent in Steady State     :     0.00
  Average Iterations per Step :     6.20
  
  
  ***************************
  Subcatchment Runoff Summary
  ***************************
  
  --------------------------------------------------------------------------------------------------------
                            Total      Total      Total      Total      Total       Total     Peak  Runoff
                           Precip      Runon       Evap      Infil     Runoff      Runoff   Runoff   Coeff
  Subcatchment                 mm         mm         mm         mm         mm    10^6 ltr      CMS
  --------------------------------------------------------------------------------------------------------
  S100                      35.03       0.00       0.00       2.09      29.69        0.07     0.06   0.848
  S101                      35.03       0.00       0.00       2.09      28.86        0.12     0.10   0.824
  S102                      35.03       0.00       0.00       2.09      29.20        0.14     0.12   0.834
  S104                      35.03       0.00       0.00       5.23      27.05        0.08     0.06   0.772
  S105                      35.03       0.00       0.00       2.09      29.68        0.09     0.08   0.847
  S106                      35.03       0.00       0.00       2.09      30.07        0.10     0.09   0.859
  S107                      35.03       0.00       0.00       2.09      30.01        0.14     0.12   0.857
  S108                      35.03       0.00       0.00       2.09      30.08        0.15     0.13   0.859
  S109                      35.03       0.00       0.00       2.09      29.76        0.14     0.12   0.849
  S110                      35.03       0.00       0.00       2.09      29.40        0.14     0.12   0.839
  S111                      35.03       0.00       0.00       4.19      28.27        0.09     0.08   0.807
  S112                      35.03       0.00       0.00       4.19      27.52        0.05     0.05   0.786
  S113                      35.03       0.00       0.00       2.01      29.48        0.03     0.02   0.842
  S114                      35.03       0.00       0.00       3.41      28.56        0.06     0.05   0.815
  S115                      35.03       0.00       0.00       2.09      29.67        0.04     0.03   0.847
  S116                      35.03       0.00       0.00       2.09      30.13        0.03     0.03   0.860
  S117                      35.03       0.00       0.00       2.09      30.04        0.08     0.07   0.858
  S118                      35.03       0.00       0.00       2.09      29.93        0.13     0.11   0.854
  S119                      35.03       0.00       0.00       2.09      29.87        0.09     0.07   0.853
  S120                      35.03       0.00       0.00       2.09      29.55        0.06     0.05   0.844
  S123                      35.03       0.00       0.00       2.09      29.73        0.06     0.05   0.849
  S124                      35.03       0.00       0.00       2.09      29.07        0.09     0.08   0.830
  S125                      35.03       0.00       0.00       2.09      29.81        0.07     0.06   0.851
  S126                      35.03       0.00       0.00       2.09      30.17        0.09     0.08   0.861
  S127                      35.03       0.00       0.00       2.09      30.94        0.10     0.08   0.883
  S128                      35.03       0.00       0.00       2.09      30.21        0.09     0.08   0.862
  S129                      35.03       0.00       0.00       2.09      29.94        0.09     0.08   0.855
  S130                      35.03       0.00       0.00       2.09      29.23        0.09     0.08   0.834
  S131                      35.03       0.00       0.00       2.09      29.37        0.10     0.08   0.838
  S132                      35.03       0.00       0.00       2.09      29.89        0.08     0.07   0.853
  S18828                    35.03       0.00       0.00       2.09      29.47        0.05     0.05   0.841
  S18830                    35.03       0.00       0.00       2.09      29.94        0.08     0.07   0.855
  S18832                    35.03       0.00       0.00       2.09      29.84        0.04     0.03   0.852
  S18833                    35.03       0.00       0.00       2.09      30.40        0.08     0.07   0.868
  S18834                    35.03       0.00       0.00       2.09      29.83        0.06     0.06   0.851
  S18835                    35.03       0.00       0.00       2.09      30.24        0.11     0.10   0.863
  S18836                    35.03       0.00       0.00       2.09      29.79        0.09     0.08   0.850
  S18837                    35.03       0.00       0.00       2.09      30.68        0.13     0.11   0.876
  S18838                    35.03       0.00       0.00       2.09      29.72        0.07     0.06   0.848
  S18839                    35.03       0.00       0.00       2.09      30.19        0.10     0.09   0.862
  S18840                    35.03       0.00       0.00       2.09      30.17        0.14     0.12   0.861
  S18841                    35.03       0.00       0.00       2.09      30.63        0.11     0.10   0.874
  S18842                    35.03       0.00       0.00       2.09      30.18        0.06     0.05   0.862
  S18843                    35.03       0.00       0.00       2.09      29.70        0.06     0.05   0.848
  S18844                    35.03       0.00       0.00       2.09      29.76        0.08     0.07   0.849
  S18845                    35.03       0.00       0.00       2.09      30.73        0.05     0.05   0.877
  S18846                    35.03       0.00       0.00       2.09      30.39        0.06     0.05   0.868
  S18847                    35.03       0.00       0.00       2.09      30.84        0.06     0.05   0.881
  S18848                    35.03       0.00       0.00       2.09      29.64        0.03     0.03   0.846
  S18849                    35.03       0.00       0.00       2.09      29.29        0.08     0.07   0.836
  S18850                    35.03       0.00       0.00       2.09      29.78        0.09     0.08   0.850
  S18851                    35.03       0.00       0.00       2.09      29.56        0.04     0.04   0.844
  S18852                    35.03       0.00       0.00       2.09      29.48        0.06     0.06   0.842
  S18853                    35.03       0.00       0.00       2.09      30.44        0.10     0.08   0.869
  S18854                    35.03       0.00       0.00       2.09      29.30        0.06     0.06   0.836
  S18855                    35.03       0.00       0.00       2.09      29.63        0.11     0.09   0.846
  S18856                    35.03       0.00       0.00       2.09      29.60        0.06     0.05   0.845
  S18857                    35.03       0.00       0.00       2.09      30.27        0.11     0.10   0.864
  S18858                    35.03       0.00       0.00       2.09      29.13        0.04     0.04   0.831
  S18859                    35.03       0.00       0.00       2.09      30.07        0.07     0.06   0.859
  S18860                    35.03       0.00       0.00       2.09      29.78        0.07     0.07   0.850
  S18861                    35.03       0.00       0.00       2.09      30.63        0.08     0.07   0.874
  S18862                    35.03       0.00       0.00       2.09      29.69        0.10     0.09   0.848
  S18863                    35.03       0.00       0.00       2.09      30.15        0.08     0.07   0.861
  S18864                    35.03       0.00       0.00       2.09      29.94        0.07     0.06   0.855
  S18865                    35.03       0.00       0.00       2.09      30.53        0.10     0.09   0.872
  S18866                    35.03       0.00       0.00       2.09      30.05        0.05     0.05   0.858
  S18867                    35.03       0.00       0.00       2.09      29.87        0.06     0.06   0.853
  S18868                    35.03       0.00       0.00       2.09      30.52        0.06     0.05   0.871
  S18869                    35.03       0.00       0.00       2.09      29.78        0.10     0.09   0.850
  S18870                    35.03       0.00       0.00       2.09      30.76        0.06     0.05   0.878
  S18871                    35.03       0.00       0.00       2.09      30.49        0.07     0.06   0.870
  S18872                    35.03       0.00       0.00       2.09      30.03        0.05     0.05   0.857
  S18873                    35.03       0.00       0.00       2.09      29.56        0.13     0.11   0.844
  S18874                    35.03       0.00       0.00       2.09      29.44        0.12     0.11   0.841
  S18875                    35.03       0.00       0.00       2.09      30.21        0.11     0.10   0.862
  S18876                    35.03       0.00       0.00       2.09      29.88        0.07     0.07   0.853
  S18877                    35.03       0.00       0.00       2.09      30.26        0.11     0.10   0.864
  S18878                    35.03       0.00       0.00       2.09      29.49        0.06     0.05   0.842
  S18879                    35.03       0.00       0.00       2.09      29.76        0.11     0.09   0.850
  S18880                    35.03       0.00       0.00       2.09      28.97        0.06     0.05   0.827
  S18881                    35.03       0.00       0.00       2.09      29.81        0.06     0.06   0.851
  S18882                    35.03       0.00       0.00       2.09      29.48        0.14     0.12   0.841
  S18883                    35.03       0.00       0.00       2.09      29.57        0.05     0.05   0.844
  S18884                    35.03       0.00       0.00       2.09      30.58        0.07     0.06   0.873
  S18885                    35.03       0.00       0.00       2.09      29.53        0.05     0.05   0.843
  S18886                    35.03       0.00       0.00       2.09      30.39        0.10     0.09   0.867
  S18887                    35.03       0.00       0.00       2.09      30.57        0.07     0.06   0.873
  S18911                    35.03       0.00       0.00       2.09      29.55        0.11     0.10   0.844
  S18912                    35.03       0.00       0.00       2.09      29.45        0.07     0.06   0.841
  S18913                    35.03       0.00       0.00       2.09      30.00        0.11     0.10   0.856
  S18960                    35.03       0.00       0.00       2.09      30.46        0.09     0.08   0.869
  S18973                    35.03       0.00       0.00       5.23      27.24        0.07     0.06   0.778
  S18976                    35.03       0.00       0.00       5.23      26.75        0.07     0.06   0.764
  S233                      35.03       0.00       0.00       2.09      29.21        0.06     0.05   0.834
  S234                      35.03       0.00       0.00       2.11      28.70        0.03     0.03   0.819
  S237                      35.03       0.00       0.00       2.15      28.56        0.04     0.04   0.815
  S29                       35.03       0.00       0.00       4.16      28.68        0.08     0.07   0.819
  S30                       35.03       0.00       0.00       4.18      29.17        0.09     0.07   0.833
  S31                       35.03       0.00       0.00       2.09      31.37        0.04     0.03   0.896
  S32                       35.03       0.00       0.00       2.09      31.40        0.06     0.05   0.896
  S33                       35.03       0.00       0.00       2.09      23.34        0.05     0.04   0.666
  S34                       35.03       0.00       0.00       2.09      26.40        0.03     0.03   0.754
  S35                       35.03       0.00       0.00       2.09      29.93        0.07     0.06   0.854
  S36                       35.03       0.00       0.00       2.14      30.56        0.06     0.05   0.872
  S37                       35.03       0.00       0.00       2.09      30.37        0.11     0.10   0.867
  S38                       35.03       0.00       0.00       2.09      29.92        0.10     0.09   0.854
  S39                       35.03       0.00       0.00       2.09      29.71        0.06     0.05   0.848
  S40                       35.03       0.00       0.00       2.09      29.18        0.06     0.06   0.833
  S41                       35.03       0.00       0.00       5.23      27.09        0.12     0.10   0.773
  S42                       35.03       0.00       0.00       2.09      29.50        0.09     0.08   0.842
  S43                       35.03       0.00       0.00       2.09      29.89        0.06     0.05   0.853
  S44                       35.03       0.00       0.00       2.09      29.85        0.07     0.06   0.852
  S45                       35.03       0.00       0.00       2.09      30.12        0.05     0.04   0.860
  S46                       35.03       0.00       0.00       2.14      26.56        0.03     0.03   0.758
  S47                       35.03       0.00       0.00       2.14      28.38        0.03     0.02   0.810
  S48                       35.03       0.00       0.00       2.09      29.63        0.05     0.05   0.846
  S49                       35.03       0.00       0.00       2.09      30.51        0.08     0.07   0.871
  S50                       35.03       0.00       0.00       2.09      31.06        0.05     0.05   0.887
  S51                       35.03       0.00       0.00       2.09      29.39        0.11     0.09   0.839
  S52                       35.03       0.00       0.00       2.09      30.04        0.13     0.11   0.858
  S53                       35.03       0.00       0.00       4.10      29.56        0.09     0.07   0.844
  S54                       35.03       0.00       0.00       2.03      31.32        0.10     0.09   0.894
  S55                       35.03       0.00       0.00       3.40      29.19        0.11     0.09   0.833
  S56                       35.03       0.00       0.00       3.49      28.50        0.06     0.05   0.814
  S57                       35.03       0.00       0.00       1.93      29.77        0.10     0.09   0.850
  S58                       35.03       0.00       0.00       1.98      30.38        0.09     0.08   0.867
  S59                       35.03       0.00       0.00       2.09      30.09        0.09     0.07   0.859
  S60                       35.03       0.00       0.00       2.09      29.61        0.06     0.06   0.845
  S61                       35.03       0.00       0.00       2.09      29.95        0.13     0.11   0.855
  S62                       35.03       0.00       0.00       2.09      29.12        0.09     0.08   0.831
  S63                       35.03       0.00       0.00       2.32      30.37        0.11     0.09   0.867
  S64                       35.03       0.00       0.00       2.09      30.32        0.12     0.10   0.866
  S65                       35.03       0.00       0.00       2.09      31.28        0.07     0.06   0.893
  S66                       35.03       0.00       0.00       2.08      31.05        0.03     0.02   0.886
  S67                       35.03       0.00       0.00       2.09      29.88        0.08     0.07   0.853
  S68                       35.03       0.00       0.00       2.20      30.03        0.14     0.12   0.857
  S69                       35.03       0.00       0.00       2.09      30.56        0.12     0.10   0.872
  S70                       35.03       0.00       0.00       2.09      30.18        0.06     0.05   0.862
  S71                       35.03       0.00       0.00       2.43      30.12        0.10     0.09   0.860
  S72                       35.03       0.00       0.00       2.31      29.01        0.06     0.06   0.828
  S73                       35.03       0.00       0.00       2.09      29.79        0.15     0.13   0.850
  S74                       35.03       0.00       0.00       2.09      31.26        0.07     0.06   0.892
  S75                       35.03       0.00       0.00       2.48      30.08        0.05     0.04   0.859
  S76                       35.03       0.00       0.00       2.08      31.32        0.05     0.04   0.894
  S77                       35.03       0.00       0.00       2.08      30.80        0.09     0.08   0.879
  S78                       35.03       0.00       0.00       2.28      30.17        0.07     0.06   0.861
  S79                       35.03       0.00       0.00       2.09      29.29        0.13     0.11   0.836
  S80                       35.03       0.00       0.00       2.09      29.58        0.15     0.13   0.844
  S81                       35.03       0.00       0.00       2.09      29.12        0.06     0.06   0.831
  S82                       35.03       0.00       0.00       2.09      29.95        0.17     0.15   0.855
  S83                       35.03       0.00       0.00       2.09      30.45        0.10     0.08   0.869
  S84                       35.03       0.00       0.00       2.09      29.60        0.13     0.11   0.845
  S85                       35.03       0.00       0.00       2.09      29.16        0.05     0.05   0.832
  S86                       35.03       0.00       0.00       2.09      29.56        0.05     0.04   0.844
  S87                       35.03       0.00       0.00       2.09      29.38        0.06     0.05   0.839
  S88                       35.03       0.00       0.00       2.09      29.05        0.07     0.06   0.829
  S89                       35.03       0.00       0.00       2.09      29.03        0.07     0.06   0.829
  S90                       35.03       0.00       0.00       2.29      29.66        0.08     0.07   0.847
  S91                       35.03       0.00       0.00       2.33      30.38        0.08     0.07   0.867
  S92                       35.03       0.00       0.00       2.68      29.89        0.10     0.09   0.853
  S93                       35.03       0.00       0.00       2.09      29.33        0.06     0.05   0.837
  S94                       35.03       0.00       0.00       2.91      29.85        0.12     0.11   0.852
  S95                       35.03       0.00       0.00       2.09      31.31        0.07     0.06   0.894
  S96                       35.03       0.00       0.00       2.09      30.96        0.08     0.07   0.884
  S97                       35.03       0.00       0.00       2.09      28.82        0.13     0.11   0.823
  S98                       35.03       0.00       0.00       2.09      29.18        0.14     0.12   0.833
  S99                       35.03       0.00       0.00       2.09      29.29        0.09     0.08   0.836
  
  
  ******************
  Node Depth Summary
  ******************
  
  ---------------------------------------------------------------------
                                 Average  Maximum  Maximum  Time of Max
                                   Depth    Depth      HGL   Occurrence
  Node                 Type       Meters   Meters   Meters  days hr:min
  ---------------------------------------------------------------------
  66                   JUNCTION     0.12     0.25    51.24     0  00:30
  65                   JUNCTION     0.12     0.23    53.30     0  00:30
  64                   JUNCTION     0.18     0.57    42.51     0  00:30
  63                   JUNCTION     0.19     0.62    43.77     0  00:30
  62                   JUNCTION     0.16     0.46    46.26     0  00:30
  61                   JUNCTION     0.16     0.42    47.94     0  00:30
  60                   JUNCTION     0.13     0.38    48.54     0  00:31
  59                   JUNCTION     0.18     0.61    48.51     0  00:30
  58                   JUNCTION     0.15     0.40    49.22     0  00:30
  57                   JUNCTION     0.14     0.35    50.58     0  00:30
  56                   JUNCTION     0.12     0.24    53.67     0  00:30
  55                   JUNCTION     0.14     0.36    53.31     0  00:30
  54                   JUNCTION     0.13     0.28    53.00     0  00:30
  53                   JUNCTION     0.12     0.23    54.03     0  00:30
  52                   JUNCTION     0.16     0.44    48.93     0  00:30
  51                   JUNCTION     0.14     0.37    51.19     0  00:30
  50                   JUNCTION     0.11     0.18    55.81     0  00:30
  49                   JUNCTION     0.12     0.25    56.90     0  00:30
  48                   JUNCTION     0.13     0.32    56.43     0  00:30
  47                   JUNCTION     0.11     0.22    55.94     0  00:30
  46                   JUNCTION     0.13     0.32    53.30     0  00:30
  45                   JUNCTION     0.16     0.61    25.67     0  00:31
  44                   JUNCTION     0.27     1.21    27.96     0  00:30
  43                   JUNCTION     0.25     1.12    29.15     0  00:30
  42                   JUNCTION     2.79     3.44    31.43     0  00:30
  41                   JUNCTION     0.93     3.35    33.49     0  00:31
  40                   JUNCTION     0.21     0.90    35.01     0  00:30
  39                   JUNCTION     0.21     1.30    37.88     0  00:31
  38                   JUNCTION     0.21     2.06    39.86     0  00:32
  37                   JUNCTION     0.19     0.61    40.59     0  00:30
  35                   JUNCTION     0.16     0.45    47.37     0  00:30
  34                   JUNCTION     0.30     0.53    53.08     0  00:30
  33                   JUNCTION     0.15     0.38    53.49     0  00:30
  32                   JUNCTION     0.13     0.27    55.11     0  00:30
  31                   JUNCTION     0.13     0.31    56.17     0  00:30
  30                   JUNCTION     0.12     0.26    57.86     0  00:30
  29                   JUNCTION     0.13     0.27    58.39     0  00:30
  239                  JUNCTION     0.15     1.13    16.33     0  00:31
  237                  JUNCTION     0.33     2.00    18.75     0  00:31
  235                  JUNCTION     0.09     0.17    43.47     0  00:36
  234                  JUNCTION     0.17     1.52    18.68     0  00:31
  233                  JUNCTION     0.11     0.19    37.03     0  00:30
  20607                JUNCTION     0.18     0.54    45.52     0  00:30
  20599                JUNCTION     0.09     0.54    38.37     0  00:30
  20598                JUNCTION     0.07     0.35    35.04     0  00:31
  20597                JUNCTION     0.08     0.42    35.97     0  00:31
  20596                JUNCTION     0.06     0.29    37.58     0  00:30
  18976                JUNCTION     0.13     0.33    31.55     0  00:30
  18973                JUNCTION     0.13     0.35    35.41     0  00:30
  18960                JUNCTION     0.12     1.60    34.40     0  00:26
  18913                JUNCTION     0.05     1.75    31.58     0  00:30
  18912                JUNCTION     0.04     0.21    34.26     0  00:30
  18911                JUNCTION     0.04     0.22    36.95     0  00:30
  18887                JUNCTION     0.06     0.31    29.90     0  00:30
  18886                JUNCTION     0.13     1.69    29.38     0  00:30
  18885                JUNCTION     0.16     0.78    27.45     0  00:31
  18884                JUNCTION     0.12     0.57    27.84     0  00:31
  18883                JUNCTION     0.10     0.47    28.47     0  00:30
  18882                JUNCTION     0.20     1.51    30.98     0  00:29
  18881                JUNCTION     0.07     0.39    31.09     0  00:31
  18880                JUNCTION     0.09     1.51    30.80     0  00:30
  18879                JUNCTION     0.25     1.72    32.18     0  00:22
  18878                JUNCTION     0.07     0.35    32.71     0  00:30
  18877                JUNCTION     0.06     0.33    34.34     0  00:30
  18876                JUNCTION     0.06     0.32    35.34     0  00:30
  18875                JUNCTION     0.19     1.31    36.97     0  00:29
  18874                JUNCTION     0.06     0.32    31.63     0  00:30
  18873                JUNCTION     0.03     0.16    32.52     0  00:30
  18872                JUNCTION     0.06     0.30    31.34     0  00:30
  18871                JUNCTION     0.05     0.26    33.13     0  00:30
  18870                JUNCTION     0.04     0.24    34.72     0  00:30
  18869                JUNCTION     0.04     0.19    35.24     0  00:30
  18868                JUNCTION     0.03     0.19    36.36     0  00:30
  18867                JUNCTION     0.09     1.49    38.29     0  00:26
  18866                JUNCTION     0.02     0.11    40.55     0  00:30
  18865                JUNCTION     0.17     1.61    37.95     0  00:21
  18864                JUNCTION     0.23     1.65    37.62     0  00:22
  18863                JUNCTION     0.03     0.17    39.95     0  00:30
  18862                JUNCTION     0.05     0.29    38.82     0  00:30
  18861                JUNCTION     0.14     1.60    38.18     0  00:22
  18860                JUNCTION     0.02     0.11    40.78     0  00:30
  18859                JUNCTION     0.03     0.15    35.70     0  00:30
  18858                JUNCTION     0.04     0.19    35.80     0  00:30
  18857                JUNCTION     0.05     0.27    37.12     0  00:30
  18856                JUNCTION     0.03     0.16    38.33     0  00:30
  18855                JUNCTION     0.04     0.24    39.68     0  00:30
  18854                JUNCTION     0.03     0.14    40.82     0  00:30
  18853                JUNCTION     0.04     0.20    42.08     0  00:30
  18852                JUNCTION     0.02     0.10    43.35     0  00:30
  18851                JUNCTION     0.01     0.08    43.38     0  00:30
  18850                JUNCTION     0.04     0.23    38.64     0  00:30
  18849                JUNCTION     0.03     0.19    41.54     0  00:30
  18848                JUNCTION     0.03     0.16    36.87     0  00:30
  18847                JUNCTION     0.03     0.15    38.09     0  00:30
  18846                JUNCTION     0.03     0.14    44.34     0  00:30
  18845                JUNCTION     0.02     0.08    40.95     0  00:30
  18844                JUNCTION     0.09     1.59    31.42     0  00:30
  18843                JUNCTION     0.07     0.38    31.88     0  00:30
  18842                JUNCTION     0.04     0.19    36.18     0  00:30
  18841                JUNCTION     0.03     0.15    38.52     0  00:30
  18840                JUNCTION     0.08     1.62    36.45     0  00:29
  18839                JUNCTION     0.07     1.66    33.13     0  00:30
  18838                JUNCTION     0.05     0.30    35.15     0  00:31
  18837                JUNCTION     0.05     0.31    36.63     0  00:30
  18836                JUNCTION     0.04     0.22    38.33     0  00:30
  18835                JUNCTION     0.06     0.35    39.86     0  00:30
  18834                JUNCTION     0.04     0.23    41.13     0  00:30
  18833                JUNCTION     0.03     0.15    42.06     0  00:30
  18832                JUNCTION     0.01     0.08    43.17     0  00:30
  18830                JUNCTION     0.04     0.22    33.73     0  00:30
  18775                JUNCTION     0.22     1.85    36.85     0  00:32
  132                  JUNCTION     0.19     0.57    21.34     0  00:31
  131                  JUNCTION     0.17     0.50    23.86     0  00:31
  130                  JUNCTION     0.20     0.68    24.64     0  00:31
  129                  JUNCTION     0.18     0.56    26.45     0  00:31
  128                  JUNCTION     0.18     0.56    28.26     0  00:31
  127                  JUNCTION     0.19     0.62    29.44     0  00:31
  126                  JUNCTION     0.18     0.57    30.73     0  00:31
  125                  JUNCTION     0.17     0.68    21.92     0  00:31
  124                  JUNCTION     0.19     0.84    23.26     0  00:31
  123                  JUNCTION     0.08     0.52    19.63     0  00:31
  120                  JUNCTION     0.14     0.35    38.10     0  00:30
  119                  JUNCTION     0.14     0.35    40.50     0  00:30
  118                  JUNCTION     0.14     0.33    42.87     0  00:30
  117                  JUNCTION     0.14     0.35    44.94     0  00:30
  116                  JUNCTION     0.13     0.30    47.47     0  00:30
  115                  JUNCTION     0.13     0.34    48.67     0  00:30
  114                  JUNCTION     0.12     0.27    51.18     0  00:30
  113                  JUNCTION     0.12     0.25    53.49     0  00:30
  111                  JUNCTION     0.02     0.11    58.66     0  00:30
  110                  JUNCTION     0.13     0.29    34.96     0  00:30
  109                  JUNCTION     0.14     0.33    33.24     0  00:30
  108                  JUNCTION     0.14     0.33    31.08     0  00:30
  107                  JUNCTION     0.15     0.38    29.00     0  00:30
  106                  JUNCTION     0.15     0.40    27.29     0  00:30
  105                  JUNCTION     0.12     0.24    36.90     0  00:30
  104                  JUNCTION     0.12     0.28    35.96     0  00:31
  102                  JUNCTION     0.16     0.47    37.82     0  00:30
  101                  JUNCTION     0.21     0.78    38.38     0  00:31
  100                  JUNCTION     0.18     0.58    31.91     0  00:31
  238_245              JUNCTION    58.91   189.53   203.78     0  00:23
  112                  JUNCTION     0.12     0.27    54.70     0  00:30
  238_244              JUNCTION     0.00     0.00    14.25     0  00:00
  237_242              JUNCTION     0.18     0.72    17.47     0  00:31
  18828_18969          JUNCTION     2.34     2.96    29.43     0  00:31
  99                   JUNCTION     0.14     0.39    38.59     0  00:31
  98                   JUNCTION     0.06     0.39    38.54     0  00:31
  97                   JUNCTION     0.14     0.37    38.25     0  00:30
  96                   JUNCTION     0.14     0.34    36.44     0  00:30
  95                   JUNCTION     0.17     0.52    33.49     0  00:31
  93                   JUNCTION     0.14     0.49    38.48     0  00:30
  90                   JUNCTION     0.07     0.37    38.87     0  00:30
  89                   JUNCTION     0.16     0.44    40.04     0  00:30
  88                   JUNCTION     0.39     0.85    38.46     0  00:30
  87                   JUNCTION     0.15     0.41    42.11     0  00:30
  86                   JUNCTION     0.15     0.40    44.60     0  00:30
  85                   JUNCTION     0.11     0.21    44.20     0  00:30
  84                   JUNCTION     0.13     0.32    43.44     0  00:30
  83                   JUNCTION     0.13     0.30    42.67     0  00:30
  82                   JUNCTION     0.15     0.38    47.20     0  00:30
  81                   JUNCTION     0.21     0.38    43.57     0  00:31
  80                   JUNCTION     0.15     0.47    43.56     0  00:30
  79                   JUNCTION     0.10     0.28    43.08     0  00:30
  78                   JUNCTION     0.14     0.34    43.42     0  00:30
  77                   JUNCTION     0.13     0.31    45.65     0  00:30
  76                   JUNCTION     0.12     0.25    49.34     0  00:30
  75                   JUNCTION     0.15     0.40    40.87     0  00:30
  74                   JUNCTION     0.12     0.26    53.15     0  00:30
  73                   JUNCTION     0.13     0.27    52.93     0  00:30
  72                   JUNCTION     0.11     0.21    49.88     0  00:30
  71                   JUNCTION     0.13     0.28    48.40     0  00:30
  70                   JUNCTION     0.12     0.24    52.91     0  00:30
  69                   JUNCTION     0.14     0.33    52.51     0  00:30
  68                   JUNCTION     0.15     0.40    49.85     0  00:30
  67                   JUNCTION     0.13     0.32    51.69     0  00:30
  18888                OUTFALL      0.14     0.73    26.41     0  00:31
  240                  OUTFALL      0.15     1.13    16.28     0  00:31
  236                  OUTFALL      0.09     0.17    43.32     0  00:36
  18967                OUTFALL      0.00     0.00    27.83     0  00:00
  18828                STORAGE      2.37     3.37    29.84     0  00:31
  238                  STORAGE      1.98     4.52    18.77     0  00:32
  
  
  *******************
  Node Inflow Summary
  *******************
  
  -------------------------------------------------------------------------------------
                                  Maximum  Maximum                  Lateral       Total
                                  Lateral    Total  Time of Max      Inflow      Inflow
                                   Inflow   Inflow   Occurrence      Volume      Volume
  Node                 Type           CMS      CMS  days hr:min    10^6 ltr    10^6 ltr
  -------------------------------------------------------------------------------------
  66                   JUNCTION     0.024    0.132     0  00:30       0.028       0.155
  65                   JUNCTION     0.063    0.108     0  00:30       0.074       0.127
  64                   JUNCTION     0.101    1.822     0  00:30       0.118       2.220
  63                   JUNCTION     0.091    1.727     0  00:30       0.106       2.102
  62                   JUNCTION     0.077    0.747     0  00:30       0.088       0.921
  61                   JUNCTION     0.115    0.674     0  00:30       0.134       0.834
  60                   JUNCTION     0.056    0.056     0  00:30       0.063       0.063
  59                   JUNCTION     0.075    0.575     0  00:30       0.086       0.700
  58                   JUNCTION     0.077    0.454     0  00:30       0.089       0.551
  57                   JUNCTION     0.090    0.379     0  00:30       0.104       0.462
  56                   JUNCTION     0.050    0.050     0  00:30       0.059       0.059
  55                   JUNCTION     0.089    0.138     0  00:30       0.108       0.167
  54                   JUNCTION     0.087    0.290     0  00:30       0.103       0.358
  53                   JUNCTION     0.072    0.072     0  00:30       0.088       0.088
  52                   JUNCTION     0.113    0.645     0  00:30       0.132       0.774
  51                   JUNCTION     0.093    0.538     0  00:30       0.107       0.642
  50                   JUNCTION     0.045    0.045     0  00:30       0.053       0.053
  49                   JUNCTION     0.066    0.066     0  00:30       0.076       0.076
  48                   JUNCTION     0.048    0.113     0  00:30       0.055       0.130
  47                   JUNCTION     0.024    0.134     0  00:30       0.026       0.157
  46                   JUNCTION     0.033    0.166     0  00:30       0.034       0.191
  45                   JUNCTION     0.044    6.077     0  00:31       0.051       6.186
  44                   JUNCTION     0.057    5.391     0  00:30       0.066       5.400
  43                   JUNCTION     0.053    5.420     0  00:30       0.061       5.328
  42                   JUNCTION     0.079    4.717     0  00:30       0.090       4.526
  41                   JUNCTION     0.100    8.696     0  00:31       0.122       4.477
  40                   JUNCTION     0.057    6.216     0  00:33       0.065       4.363
  39                   JUNCTION     0.050    2.356     0  00:30       0.057       2.770
  38                   JUNCTION     0.090    2.226     0  00:30       0.104       2.713
  37                   JUNCTION     0.095    2.142     0  00:30       0.111       2.608
  35                   JUNCTION     0.065    0.845     0  00:30       0.074       1.012
  34                   JUNCTION     0.033    0.449     0  00:30       0.035       0.537
  33                   JUNCTION     0.043    0.253     0  00:30       0.052       0.311
  32                   JUNCTION     0.048    0.211     0  00:30       0.057       0.260
  31                   JUNCTION     0.033    0.165     0  00:30       0.038       0.204
  30                   JUNCTION     0.072    0.133     0  00:30       0.087       0.166
  29                   JUNCTION     0.066    0.066     0  00:30       0.079       0.079
  239                  JUNCTION     0.000    7.704     0  00:31       0.000       8.495
  237                  JUNCTION     0.038    7.894     0  00:31       0.043       8.827
  235                  JUNCTION     0.000    0.090     0  00:23       0.000       0.291
  234                  JUNCTION     0.030    7.996     0  00:31       0.033       8.774
  233                  JUNCTION     0.049    0.049     0  00:30       0.055       0.055
  20607                JUNCTION     0.054    1.642     0  00:30       0.062       1.996
  20599                JUNCTION     0.070    0.756     0  00:30       0.081       0.908
  20598                JUNCTION     0.106    0.935     0  00:31       0.123       1.135
  20597                JUNCTION     0.090    0.838     0  00:30       0.104       1.012
  20596                JUNCTION     0.000    0.754     0  00:30       0.000       0.908
  18976                JUNCTION     0.059    0.661     0  00:30       0.071       0.793
  18973                JUNCTION     0.061    0.607     0  00:30       0.074       0.721
  18960                JUNCTION     0.078    0.436     0  00:30       0.090       0.698
  18913                JUNCTION     0.097    0.097     0  00:30       0.112       0.112
  18912                JUNCTION     0.061    0.298     0  00:30       0.069       0.348
  18911                JUNCTION     0.096    0.208     0  00:30       0.110       0.245
  18887                JUNCTION     0.062    0.784     0  00:30       0.072       0.890
  18886                JUNCTION     0.090    0.962     0  00:31       0.104       1.238
  18885                JUNCTION     0.046    2.291     0  00:31       0.052       3.112
  18884                JUNCTION     0.065    1.287     0  00:30       0.075       1.823
  18883                JUNCTION     0.048    1.228     0  00:30       0.054       1.750
  18882                JUNCTION     0.118    0.403     0  00:30       0.136       0.805
  18881                JUNCTION     0.057    0.751     0  00:30       0.064       0.963
  18880                JUNCTION     0.053    0.891     0  00:30       0.059       1.133
  18879                JUNCTION     0.094    0.530     0  00:30       0.108       0.807
  18878                JUNCTION     0.050    0.706     0  00:29       0.056       0.899
  18877                JUNCTION     0.095    0.358     0  00:30       0.110       0.495
  18876                JUNCTION     0.065    0.626     0  00:30       0.074       0.993
  18875                JUNCTION     0.097    0.358     0  00:30       0.112       0.674
  18874                JUNCTION     0.107    0.218     0  00:30       0.123       0.254
  18873                JUNCTION     0.114    0.114     0  00:30       0.132       0.132
  18872                JUNCTION     0.047    0.725     0  00:30       0.054       0.818
  18871                JUNCTION     0.062    0.472     0  00:30       0.072       0.510
  18870                JUNCTION     0.053    0.413     0  00:30       0.061       0.438
  18869                JUNCTION     0.090    0.090     0  00:30       0.103       0.103
  18868                JUNCTION     0.052    0.275     0  00:30       0.060       0.274
  18867                JUNCTION     0.056    0.223     0  00:30       0.064       0.241
  18866                JUNCTION     0.046    0.083     0  00:30       0.053       0.094
  18865                JUNCTION     0.085    0.149     0  00:30       0.099       0.218
  18864                JUNCTION     0.061    0.497     0  00:30       0.070       0.636
  18863                JUNCTION     0.071    0.111     0  00:30       0.082       0.129
  18862                JUNCTION     0.088    0.297     0  00:30       0.100       0.349
  18861                JUNCTION     0.066    0.150     0  00:30       0.076       0.202
  18860                JUNCTION     0.066    0.126     0  00:30       0.075       0.146
  18859                JUNCTION     0.058    0.058     0  00:30       0.066       0.066
  18858                JUNCTION     0.039    0.240     0  00:30       0.044       0.279
  18857                JUNCTION     0.099    0.203     0  00:30       0.110       0.236
  18856                JUNCTION     0.051    0.221     0  00:30       0.058       0.260
  18855                JUNCTION     0.094    0.173     0  00:30       0.108       0.202
  18854                JUNCTION     0.056    0.183     0  00:30       0.063       0.214
  18853                JUNCTION     0.083    0.129     0  00:30       0.096       0.150
  18852                JUNCTION     0.056    0.109     0  00:30       0.063       0.125
  18851                JUNCTION     0.037    0.037     0  00:30       0.041       0.041
  18850                JUNCTION     0.077    0.077     0  00:30       0.088       0.088
  18849                JUNCTION     0.075    0.075     0  00:30       0.085       0.085
  18848                JUNCTION     0.030    0.125     0  00:30       0.033       0.147
  18847                JUNCTION     0.051    0.097     0  00:30       0.059       0.113
  18846                JUNCTION     0.054    0.054     0  00:30       0.062       0.062
  18845                JUNCTION     0.047    0.047     0  00:30       0.054       0.054
  18844                JUNCTION     0.071    0.791     0  00:30       0.081       0.971
  18843                JUNCTION     0.053    0.723     0  00:30       0.060       0.890
  18842                JUNCTION     0.054    0.274     0  00:30       0.062       0.323
  18841                JUNCTION     0.098    0.098     0  00:30       0.114       0.114
  18840                JUNCTION     0.124    0.340     0  00:30       0.144       0.427
  18839                JUNCTION     0.087    0.543     0  00:30       0.100       0.638
  18838                JUNCTION     0.065    0.468     0  00:30       0.074       0.538
  18837                JUNCTION     0.109    0.354     0  00:30       0.128       0.398
  18836                JUNCTION     0.076    0.471     0  00:30       0.086       0.554
  18835                JUNCTION     0.097    0.324     0  00:30       0.112       0.380
  18834                JUNCTION     0.055    0.232     0  00:30       0.063       0.268
  18833                JUNCTION     0.072    0.105     0  00:30       0.083       0.120
  18832                JUNCTION     0.033    0.033     0  00:30       0.037       0.037
  18830                JUNCTION     0.069    0.341     0  00:30       0.079       0.403
  18775                JUNCTION     0.000    3.508     0  00:33       0.000       2.766
  132                  JUNCTION     0.067    1.898     0  00:31       0.076       2.339
  131                  JUNCTION     0.084    1.838     0  00:31       0.096       2.263
  130                  JUNCTION     0.077    1.762     0  00:31       0.088       2.168
  129                  JUNCTION     0.080    1.692     0  00:31       0.092       2.080
  128                  JUNCTION     0.080    1.619     0  00:31       0.092       1.989
  127                  JUNCTION     0.082    1.547     0  00:31       0.096       1.897
  126                  JUNCTION     0.081    1.473     0  00:31       0.094       1.802
  125                  JUNCTION     0.061    6.063     0  00:31       0.070       6.342
  124                  JUNCTION     0.076    6.144     0  00:31       0.088       6.272
  123                  JUNCTION     0.052    7.971     0  00:31       0.060       8.741
  120                  JUNCTION     0.050    0.548     0  00:30       0.057       0.647
  119                  JUNCTION     0.075    0.499     0  00:30       0.086       0.591
  118                  JUNCTION     0.110    0.427     0  00:30       0.129       0.506
  117                  JUNCTION     0.070    0.322     0  00:30       0.081       0.377
  116                  JUNCTION     0.030    0.254     0  00:30       0.034       0.296
  115                  JUNCTION     0.035    0.227     0  00:30       0.039       0.262
  114                  JUNCTION     0.048    0.193     0  00:30       0.057       0.223
  113                  JUNCTION     0.025    0.146     0  00:30       0.028       0.167
  111                  JUNCTION     0.078    0.078     0  00:30       0.086       0.086
  110                  JUNCTION     0.122    0.171     0  00:30       0.142       0.197
  109                  JUNCTION     0.123    0.291     0  00:30       0.143       0.340
  108                  JUNCTION     0.130    0.418     0  00:30       0.153       0.494
  107                  JUNCTION     0.122    0.538     0  00:30       0.143       0.637
  106                  JUNCTION     0.086    0.622     0  00:30       0.099       0.736
  105                  JUNCTION     0.076    0.076     0  00:30       0.087       0.087
  104                  JUNCTION     0.064    0.139     0  00:30       0.077       0.164
  102                  JUNCTION     0.116    1.115     0  00:31       0.135       1.342
  101                  JUNCTION     0.100    1.015     0  00:30       0.116       1.204
  100                  JUNCTION     0.061    1.399     0  00:31       0.069       1.708
  238_245              JUNCTION     0.000    0.048     0  00:20       0.000       0.297
  112                  JUNCTION     0.046    0.123     0  00:30       0.053       0.139
  238_244              JUNCTION     0.000    0.000     0  00:00       0.000       0.000
  237_242              JUNCTION     0.000    7.704     0  00:31       0.000       8.498
  18828_18969          JUNCTION     0.000    1.352     0  00:31       0.000       1.609
  99                   JUNCTION     0.077    0.077     0  00:30       0.089       0.089
  98                   JUNCTION     0.120    0.191     0  00:30       0.140       0.229
  97                   JUNCTION     0.112    0.293     0  00:30       0.130       0.359
  96                   JUNCTION     0.070    0.360     0  00:30       0.082       0.442
  95                   JUNCTION     0.055    1.343     0  00:30       0.065       1.641
  93                   JUNCTION     0.052    0.052     0  00:30       0.059       0.059
  90                   JUNCTION     0.068    0.689     0  00:30       0.078       0.827
  89                   JUNCTION     0.060    0.810     0  00:30       0.065       0.962
  88                   JUNCTION     0.064    0.920     0  00:30       0.072       1.092
  87                   JUNCTION     0.052    0.753     0  00:30       0.059       0.897
  86                   JUNCTION     0.042    0.703     0  00:30       0.047       0.838
  85                   JUNCTION     0.047    0.047     0  00:30       0.053       0.053
  84                   JUNCTION     0.112    0.158     0  00:30       0.130       0.183
  83                   JUNCTION     0.082    0.236     0  00:30       0.095       0.278
  82                   JUNCTION     0.145    0.662     0  00:30       0.169       0.792
  81                   JUNCTION     0.056    0.056     0  00:30       0.063       0.063
  80                   JUNCTION     0.125    0.179     0  00:30       0.146       0.208
  79                   JUNCTION     0.109    0.274     0  00:30       0.127       0.335
  78                   JUNCTION     0.062    0.309     0  00:30       0.072       0.367
  77                   JUNCTION     0.076    0.249     0  00:30       0.088       0.296
  76                   JUNCTION     0.045    0.175     0  00:30       0.053       0.208
  75                   JUNCTION     0.042    0.624     0  00:30       0.047       0.749
  74                   JUNCTION     0.056    0.056     0  00:30       0.066       0.066
  73                   JUNCTION     0.128    0.182     0  00:30       0.149       0.214
  72                   JUNCTION     0.055    0.055     0  00:30       0.062       0.062
  71                   JUNCTION     0.089    0.143     0  00:30       0.103       0.165
  70                   JUNCTION     0.053    0.053     0  00:30       0.061       0.061
  69                   JUNCTION     0.102    0.154     0  00:30       0.119       0.180
  68                   JUNCTION     0.124    0.525     0  00:30       0.144       0.623
  67                   JUNCTION     0.074    0.223     0  00:30       0.085       0.264
  18888                OUTFALL      0.000    2.282     0  00:31       0.000       3.111
  240                  OUTFALL      0.000    7.665     0  00:31       0.000       8.495
  236                  OUTFALL      0.000    0.048     0  00:36       0.000       0.272
  18967                OUTFALL      0.000    1.349     0  00:31       0.000       1.585
  18828                STORAGE      0.045    1.377     0  00:30       0.051       1.689
  238                  STORAGE      0.000    0.400     0  00:21       0.000       0.326
  
  
  **********************
  Node Surcharge Summary
  **********************
  
  Surcharging occurs when water rises above the top of the highest conduit.
  ---------------------------------------------------------------------
                                               Max. Height   Min. Depth
                                   Hours       Above Crown    Below Rim
  Node                 Type      Surcharged         Meters       Meters
  ---------------------------------------------------------------------
  39                   JUNCTION        0.06          0.398        0.542
  38                   JUNCTION        0.02          1.160        0.000
  18960                JUNCTION        0.19          1.100        0.000
  18913                JUNCTION        0.04          1.435        0.000
  18886                JUNCTION        0.11          1.089        0.211
  18882                JUNCTION        0.38          1.105        0.255
  18880                JUNCTION        0.04          0.914        0.436
  18879                JUNCTION        0.39          1.320        0.000
  18875                JUNCTION        0.47          0.907        0.293
  18867                JUNCTION        0.20          1.086        0.124
  18865                JUNCTION        0.43          1.210        0.000
  18864                JUNCTION        0.48          1.250        0.000
  18861                JUNCTION        0.35          1.200        0.000
  18844                JUNCTION        0.05          0.991        0.059
  18840                JUNCTION        0.08          1.305        0.000
  18839                JUNCTION        0.06          1.200        0.000
  18775                JUNCTION        0.01          0.660        0.000
  238_245              JUNCTION        2.61        189.100        0.000
  18828                STORAGE         0.83          0.769        0.131
  
  
  *********************
  Node Flooding Summary
  *********************
  
  Flooding refers to all water that overflows a node, whether it ponds or not.
  --------------------------------------------------------------------------
                                                             Total   Maximum
                                 Maximum   Time of Max       Flood    Ponded
                        Hours       Rate    Occurrence      Volume     Depth
  Node                 Flooded       CMS   days hr:min    10^6 ltr    Meters
  --------------------------------------------------------------------------
  38                      0.01     0.035      0  00:32       0.000      2.06
  18960                   0.01     0.034      0  00:26       0.000      1.60
  18913                   0.01     0.042      0  00:30       0.000      1.75
  18879                   0.30     0.246      0  00:30       0.137      1.72
  18865                   0.01     0.038      0  00:21       0.000      1.61
  18864                   0.16     0.236      0  00:30       0.074      1.65
  18861                   0.01     0.050      0  00:22       0.000      1.60
  18840                   0.03     0.026      0  00:29       0.001      1.62
  18839                   0.01     0.070      0  00:30       0.000      1.66
  18775                   0.01     2.324      0  00:32       0.014      1.85
  
  
  **********************
  Storage Volume Summary
  **********************
  
  --------------------------------------------------------------------------------------------
                         Average     Avg   E&I       Maximum     Max    Time of Max    Maximum
                          Volume    Pcnt  Pcnt        Volume    Pcnt     Occurrence    Outflow
  Storage Unit           1000 m3    Full  Loss       1000 m3    Full    days hr:min        CMS
  --------------------------------------------------------------------------------------------
  18828                    0.036      68     0         0.051      96       0  00:31      1.352
  238                      0.035      42     0         0.079      95       0  00:32      0.095
  
  
  ***********************
  Outfall Loading Summary
  ***********************
  
  -----------------------------------------------------------
                        Flow       Avg.      Max.       Total
                        Freq.      Flow      Flow      Volume
  Outfall Node          Pcnt.       CMS       CMS    10^6 ltr
  -----------------------------------------------------------
  18888                 94.08     0.306     2.282       3.111
  240                   52.42     1.500     7.665       8.495
  236                   62.73     0.040     0.048       0.272
  18967                 88.41     0.166     1.349       1.585
  -----------------------------------------------------------
  System                74.41     2.013    11.329      13.462
  
  
  ********************
  Link Flow Summary
  ********************
  
  -----------------------------------------------------------------------------
                                 Maximum  Time of Max   Maximum    Max/    Max/
                                  |Flow|   Occurrence   |Veloc|    Full    Full
  Link                 Type          CMS  days hr:min     m/sec    Flow   Depth
  -----------------------------------------------------------------------------
  245                  CONDUIT     0.090     0  00:23      4.21    1.01    0.79
  244                  CONDUIT     0.000     0  00:00      0.00    0.00    0.23
  242                  CONDUIT     7.704     0  00:31      4.69    0.20    0.41
  20576                CONDUIT     0.543     0  00:30      4.32    1.04    1.00
  20583                CONDUIT     0.791     0  00:30      2.91    0.84    1.00
  20588                CONDUIT     7.860     0  00:31      2.24    0.47    0.88
  20595                CONDUIT     0.400     0  00:21      3.18    1.41    1.00
  340                  CONDUIT     0.048     0  00:36      0.94    0.37    0.42
  338                  CONDUIT     0.522     0  00:30      3.66    0.50    0.50
  337                  CONDUIT     0.604     0  00:30      4.20    0.23    0.33
  336                  CONDUIT     0.063     0  00:30      1.22    0.39    0.43
  335                  CONDUIT     7.969     0  00:31      4.10    0.20    0.51
  332                  CONDUIT     0.048     0  00:30      1.27    0.11    0.34
  331                  CONDUIT     0.054     0  00:31      0.49    0.39    0.85
  323                  CONDUIT     0.135     0  00:30      1.54    0.77    0.66
  252                  CONDUIT     0.747     0  00:30      2.97    0.42    0.50
  251                  CONDUIT     1.642     0  00:30      5.19    0.59    0.60
  246                  CONDUIT     7.665     0  00:31      3.40    0.59    0.56
  229                  CONDUIT     0.674     0  00:30      4.05    0.57    0.57
  228                  CONDUIT     0.566     0  00:30      2.26    1.02    0.83
  227                  CONDUIT     0.454     0  00:30      2.72    0.51    0.59
  226                  CONDUIT     0.379     0  00:30      3.00    0.35    0.46
  225                  CONDUIT     0.290     0  00:30      3.18    0.20    0.36
  224                  CONDUIT     0.071     0  00:30      1.57    0.22    0.39
  222                  CONDUIT     0.050     0  00:30      0.80    0.25    0.50
  221                  CONDUIT     0.167     0  00:32      2.72    0.42    0.72
  220                  CONDUIT     0.075     0  00:30      1.70    0.28    0.41
  219                  CONDUIT     0.050     0  00:30      0.40    0.27    0.99
  218                  CONDUIT     0.274     0  00:30      3.18    0.59    0.65
  217                  CONDUIT     0.169     0  00:30      1.51    1.07    0.83
  216                  CONDUIT     0.054     0  00:30      0.64    0.33    0.68
  215                  CONDUIT     0.181     0  00:30      2.37    0.37    0.59
  214                  CONDUIT     0.055     0  00:30      1.14    0.33    0.41
  213                  CONDUIT     0.142     0  00:30      1.60    0.42    0.67
  212                  CONDUIT     0.055     0  00:30      1.33    0.16    0.36
  211                  CONDUIT     0.236     0  00:30      2.33    0.50    0.75
  210                  CONDUIT     0.156     0  00:30      2.19    0.59    0.55
  209                  CONDUIT     0.047     0  00:30      0.96    0.16    0.41
  207                  CONDUIT     1.162     0  00:30      5.24    0.42    0.71
  206                  CONDUIT     1.006     0  00:31      2.31    1.04    0.81
  205                  CONDUIT     0.919     0  00:30      2.28    0.78    0.76
  204                  CONDUIT     0.809     0  00:30      3.68    0.62    0.73
  203                  CONDUIT     0.752     0  00:30      4.78    0.53    0.54
  202                  CONDUIT     0.703     0  00:30      4.88    0.49    0.51
  201                  CONDUIT     0.662     0  00:30      4.89    0.45    0.48
  200                  CONDUIT     0.222     0  00:30      2.56    0.59    0.65
  199                  CONDUIT     0.151     0  00:30      2.06    0.61    0.57
  198                  CONDUIT     0.052     0  00:30      0.93    0.27    0.46
  197                  CONDUIT     0.621     0  00:30      3.44    0.51    0.67
  196                  CONDUIT     0.538     0  00:30      3.92    0.45    0.49
  195                  CONDUIT     0.418     0  00:30      3.60    0.32    0.43
  194                  CONDUIT     0.290     0  00:30      3.80    0.64    0.58
  193                  CONDUIT     0.169     0  00:30      2.53    0.44    0.52
  192                  CONDUIT     0.360     0  00:30      3.34    0.67    0.80
  191                  CONDUIT     0.293     0  00:30      3.23    0.80    0.68
  190                  CONDUIT     0.185     0  00:30      1.58    1.15    0.88
  18962                CONDUIT     0.362     0  00:31      3.76    0.82    0.89
  18961                CONDUIT     0.436     0  00:30      3.47    0.92    1.00
  189                  CONDUIT     0.072     0  00:30      0.72    0.61    0.85
  188                  CONDUIT     1.897     0  00:31      5.22    0.44    0.49
  18777                CONDUIT     5.014     0  00:33     15.81    2.20    1.00
  18776                CONDUIT     3.508     0  00:33      9.22    0.74    1.00
  187                  CONDUIT     1.838     0  00:31      5.61    0.34    0.43
  186                  CONDUIT     1.762     0  00:31      3.69    0.65    0.59
  185                  CONDUIT     1.692     0  00:31      4.87    0.63    0.65
  184                  CONDUIT     1.619     0  00:31      5.45    0.62    0.57
  183                  CONDUIT     1.547     0  00:31      4.48    0.75    0.65
  182                  CONDUIT     1.473     0  00:31      4.50    0.65    0.62
  181                  CONDUIT     1.398     0  00:31      4.47    0.67    0.60
  180                  CONDUIT     1.343     0  00:31      4.64    0.54    0.56
  176                  CONDUIT     0.623     0  00:30      4.46    0.49    0.50
  175                  CONDUIT     0.309     0  00:30      3.47    0.66    0.67
  174                  CONDUIT     0.248     0  00:30      3.45    0.54    0.56
  173                  CONDUIT     0.174     0  00:30      3.21    0.29    0.45
  172                  CONDUIT     0.131     0  00:30      2.92    0.32    0.39
  171                  CONDUIT     0.108     0  00:30      2.64    0.24    0.36
  170                  CONDUIT     0.045     0  00:30      1.64    0.09    0.27
  169                  CONDUIT     0.166     0  00:30      1.07    0.28    0.54
  168                  CONDUIT     0.134     0  00:30      2.05    0.09    0.28
  167                  CONDUIT     0.111     0  00:30      1.58    0.58    0.55
  166                  CONDUIT     0.065     0  00:30      1.21    0.29    0.45
  165                  CONDUIT     4.709     0  00:30      4.45    0.21    0.47
  164                  CONDUIT     4.643     0  00:30      5.91    0.93    1.00
  163                  CONDUIT     8.605     0  00:31     16.09    2.55    0.89
  161                  CONDUIT     2.309     0  00:30      4.81    1.06    1.00
  160                  CONDUIT     2.142     0  00:30      5.38    0.74    0.82
  159                  CONDUIT     1.822     0  00:30      5.61    0.66    0.62
  158                  CONDUIT     1.727     0  00:30      4.98    0.76    0.65
  156                  CONDUIT     0.845     0  00:30      4.25    0.66    0.66
  155                  CONDUIT     0.644     0  00:30      3.82    0.61    0.58
  154                  CONDUIT     0.537     0  00:30      3.75    0.41    0.51
  153                  CONDUIT     0.449     0  00:30      3.76    0.38    0.44
  152                  CONDUIT     0.252     0  00:30      1.94    0.45    0.47
  151                  CONDUIT     0.211     0  00:30      2.17    0.18    0.38
  150                  CONDUIT     0.164     0  00:30      2.49    0.53    0.52
  149                  CONDUIT     0.133     0  00:30      2.39    0.33    0.46
  148                  CONDUIT     6.030     0  00:31      7.14    0.32    0.38
  147                  CONDUIT     6.006     0  00:31      5.68    0.43    0.47
  146                  CONDUIT     6.072     0  00:31      6.65    0.29    0.41
  145                  CONDUIT     5.429     0  00:31      6.51    0.78    0.73
  144                  CONDUIT     5.338     0  00:30      6.44    0.75    0.72
  143                  CONDUIT     0.661     0  00:30      3.30    0.19    0.65
  142                  CONDUIT     0.547     0  00:30      4.73    0.37    0.43
  141                  CONDUIT     0.499     0  00:30      4.48    0.36    0.42
  140                  CONDUIT     0.427     0  00:30      4.10    0.31    0.40
  139                  CONDUIT     0.321     0  00:30      3.81    0.73    0.64
  138                  CONDUIT     0.254     0  00:30      3.41    0.52    0.57
  137                  CONDUIT     0.226     0  00:30      2.82    0.69    0.61
  136                  CONDUIT     0.193     0  00:30      2.92    0.39    0.52
  135                  CONDUIT     0.146     0  00:30      3.01    0.31    0.41
  134                  CONDUIT     0.122     0  00:30      2.44    0.36    0.42
  133                  CONDUIT     0.077     0  00:30      3.27    0.63    0.70
  18969                CONDUIT     1.349     0  00:31      4.82    0.58    0.55
  18966                CONDUIT     0.000     0  00:00      0.00    0.00    0.50
  20606                CONDUIT     0.935     0  00:31      3.37    0.39    0.54
  20605                CONDUIT     0.837     0  00:31      3.49    0.45    0.48
  20604                CONDUIT     0.753     0  00:30      3.48    0.28    0.45
  20603                CONDUIT     0.754     0  00:30      2.88    0.53    0.52
  20602                CONDUIT     0.689     0  00:30      2.36    0.43    0.57
  18979                CONDUIT     0.285     0  00:35      2.27    1.60    1.00
  18959                CONDUIT     0.096     0  00:30      1.37    0.89    1.00
  18958                CONDUIT     0.403     0  00:30      3.20    1.35    1.00
  18957                CONDUIT     0.322     0  00:40      2.56    1.25    1.00
  18955                CONDUIT     0.962     0  00:31      3.40    1.39    1.00
  18954                CONDUIT     0.880     0  00:31      3.11    0.94    1.00
  18953                CONDUIT     0.755     0  00:30      3.46    0.72    0.83
  18952                CONDUIT     0.697     0  00:30      3.93    0.64    0.62
  18951                CONDUIT     0.376     0  00:29      3.13    1.14    0.92
  18950                CONDUIT     0.265     0  00:30      2.44    0.97    0.81
  18949                CONDUIT     0.298     0  00:30      2.58    0.27    0.43
  18948                CONDUIT     0.240     0  00:30      2.84    0.22    0.34
  18947                CONDUIT     0.114     0  00:30      2.05    0.35    0.45
  18946                CONDUIT     0.358     0  00:30      2.85    1.82    1.00
  18945                CONDUIT     0.211     0  00:30      1.44    0.55    0.51
  18944                CONDUIT     0.113     0  00:30      1.24    0.16    0.36
  18942                CONDUIT     0.149     0  00:30      1.19    0.78    1.00
  18941                CONDUIT     0.102     0  00:30      1.55    0.27    0.53
  18940                CONDUIT     0.293     0  00:30      2.56    0.69    0.86
  18939                CONDUIT     0.110     0  00:30      1.86    0.57    0.72
  18938                CONDUIT     0.040     0  00:30      1.21    0.25    0.44
  18937                CONDUIT     0.207     0  00:30      2.90    0.59    0.55
  18936                CONDUIT     0.202     0  00:30      2.69    0.67    0.58
  18935                CONDUIT     0.106     0  00:30      1.89    0.35    0.46
  18934                CONDUIT     0.171     0  00:30      2.71    0.55    0.50
  18933                CONDUIT     0.080     0  00:30      1.36    0.27    0.48
  18932                CONDUIT     0.128     0  00:30      2.49    0.42    0.43
  18931                CONDUIT     0.087     0  00:30      1.51    0.45    0.47
  18930                CONDUIT     0.111     0  00:26      0.88    0.82    1.00
  18929                CONDUIT     0.096     0  00:47      1.19    0.61    1.00
  18928                CONDUIT     0.085     0  00:30      1.01    0.16    0.64
  18927                CONDUIT     0.061     0  00:30      2.31    0.15    0.26
  18926                CONDUIT     2.282     0  00:31      4.46    0.41    0.50
  18925                CONDUIT     1.286     0  00:31      2.66    0.63    0.60
  18924                CONDUIT     1.227     0  00:31      2.99    0.45    0.52
  18923                CONDUIT     0.783     0  00:30      2.76    0.21    0.39
  18922                CONDUIT     0.725     0  00:30      3.62    0.19    0.30
  18921                CONDUIT     0.469     0  00:30      3.40    0.22    0.32
  18920                CONDUIT     0.411     0  00:30      3.10    0.20    0.31
  18919                CONDUIT     0.274     0  00:30      2.51    0.12    0.27
  18918                CONDUIT     0.223     0  00:30      1.84    1.86    0.92
  18917                CONDUIT     0.082     0  00:30      1.47    0.17    0.64
  18916                CONDUIT     0.036     0  00:30      1.61    0.08    0.24
  18915                CONDUIT     0.047     0  00:30      1.07    0.15    0.38
  18914                CONDUIT     0.054     0  00:30      1.92    0.35    0.39
  18910                CONDUIT     0.331     0  00:29      4.25    1.18    1.00
  18909                CONDUIT     0.220     0  00:30      3.34    0.76    0.85
  18907                CONDUIT     0.463     0  00:31      4.73    0.86    0.88
  18906                CONDUIT     0.057     0  00:30      1.18    0.46    0.63
  18905                CONDUIT     0.351     0  00:30      3.39    0.94    0.77
  18904                CONDUIT     0.249     0  00:30      2.83    0.60    0.66
  18903                CONDUIT     0.076     0  00:30      1.26    0.89    0.72
  18902                CONDUIT     0.073     0  00:30      1.34    0.69    0.66
  18901                CONDUIT     0.322     0  00:30      3.36    0.84    0.72
  18900                CONDUIT     0.230     0  00:30      2.38    0.61    0.72
  18899                CONDUIT     0.104     0  00:30      1.79    0.30    0.47
  18898                CONDUIT     0.033     0  00:30      1.09    0.09    0.29
  18895                CONDUIT     0.722     0  00:30      3.52    0.72    0.81
  18894                CONDUIT     0.340     0  00:30      2.42    0.29    0.50
  18893                CONDUIT     0.096     0  00:30      2.52    0.48    0.49
  18892                CONDUIT     0.273     0  00:30      3.55    0.22    0.32
  18891                CONDUIT     0.125     0  00:30      2.35    0.34    0.44
  18890                CONDUIT     0.096     0  00:30      2.14    0.29    0.39
  18889                CONDUIT     0.046     0  00:30      1.53    0.10    0.29
  238245               PUMP        0.016     0  00:20              1.00
  2382452              PUMP        0.016     0  00:20              1.00
  2382453              PUMP        0.016     0  00:20              1.00
  1882818969           WEIR        1.352     0  00:31                      1.00
  237242               WEIR        7.704     0  00:31                      1.00
  238244               WEIR        0.000     0  00:00                      0.00
  
  
  ***************************
  Flow Classification Summary
  ***************************
  
  -----------------------------------------------------------------------------------------
                      Adjusted    --- Fraction of Time in Flow Class ----   Avg.     Avg.  
                       /Actual         Up    Down  Sub   Sup   Up    Down   Froude   Flow  
  Conduit               Length    Dry  Dry   Dry   Crit  Crit  Crit  Crit   Number   Change
  -----------------------------------------------------------------------------------------
  245                     1.00   0.12  0.51  0.00  0.00  0.00  0.37  0.00     0.69   0.3139
  244                     1.00   0.95  0.05  0.00  0.00  0.00  0.00  0.00     0.00   0.0000
  242                     1.00   0.10  0.48  0.00  0.03  0.39  0.00  0.00     0.65   0.0001
  20576                   1.00   0.06  0.00  0.00  0.76  0.13  0.00  0.06     0.44   0.0004
  20583                   1.00   0.06  0.00  0.00  0.84  0.04  0.00  0.06     0.27   0.0003
  20588                   1.00   0.07  0.00  0.00  0.92  0.01  0.00  0.00     0.35   0.0002
  20595                   1.00   0.08  0.00  0.00  0.47  0.00  0.00  0.44     0.82   0.0019
  340                     1.00   0.13  0.00  0.00  0.87  0.00  0.00  0.00     0.57   0.0171
  338                     1.00   0.07  0.00  0.00  0.00  0.38  0.00  0.55     1.86   0.0002
  337                     1.00   0.08  0.00  0.00  0.00  0.00  0.00  0.92     2.30   0.0001
  336                     1.00   0.06  0.00  0.00  0.57  0.01  0.00  0.35     0.80   0.0001
  335                     1.00   0.06  0.00  0.00  0.00  0.94  0.00  0.00     1.49   0.0001
  332                     1.00   0.09  0.00  0.00  0.62  0.29  0.00  0.00     0.81   0.0000
  331                     1.00   0.07  0.02  0.00  0.91  0.00  0.00  0.00     0.22   0.0002
  323                     1.00   0.06  0.01  0.00  0.12  0.33  0.00  0.48     1.00   0.0003
  252                     1.00   0.07  0.01  0.00  0.01  0.90  0.00  0.00     1.29   0.0002
  251                     1.00   0.06  0.00  0.00  0.00  0.93  0.00  0.00     2.17   0.0002
  246                     1.00   0.10  0.00  0.00  0.58  0.32  0.00  0.00     0.59   0.0002
  229                     1.00   0.07  0.00  0.00  0.00  0.91  0.00  0.01     1.86   0.0002
  228                     1.00   0.07  0.00  0.00  0.03  0.36  0.00  0.54     1.09   0.0004
  227                     1.00   0.07  0.00  0.00  0.00  0.09  0.00  0.84     1.76   0.0002
  226                     1.00   0.07  0.00  0.00  0.02  0.91  0.00  0.01     1.50   0.0001
  225                     1.00   0.06  0.00  0.00  0.00  0.93  0.00  0.01     1.75   0.0001
  224                     1.00   0.06  0.00  0.00  0.62  0.30  0.00  0.01     0.87   0.0001
  222                     1.00   0.07  0.02  0.00  0.91  0.00  0.00  0.00     0.46   0.0001
  221                     1.00   0.08  0.01  0.00  0.86  0.05  0.00  0.00     0.33   0.0023
  220                     1.00   0.09  0.00  0.00  0.28  0.63  0.00  0.00     1.09   0.0001
  219                     1.00   0.09  0.00  0.00  0.91  0.00  0.00  0.00     0.03   0.0001
  218                     1.00   0.07  0.02  0.00  0.01  0.91  0.00  0.00     1.90   0.0002
  217                     1.00   0.09  0.00  0.00  0.37  0.02  0.00  0.52     0.87   0.0004
  216                     1.00   0.09  0.00  0.00  0.91  0.00  0.00  0.00     0.34   0.0001
  215                     1.00   0.07  0.00  0.00  0.00  0.92  0.00  0.01     1.32   0.0001
  214                     1.00   0.06  0.00  0.00  0.73  0.15  0.00  0.06     0.58   0.0001
  213                     1.00   0.07  0.00  0.00  0.69  0.22  0.00  0.02     0.77   0.0002
  212                     1.00   0.07  0.02  0.00  0.40  0.51  0.00  0.00     0.95   0.0001
  211                     1.00   0.07  0.00  0.00  0.68  0.26  0.00  0.00     0.84   0.0002
  210                     1.00   0.07  0.02  0.00  0.00  0.40  0.00  0.50     1.36   0.0002
  209                     1.00   0.09  0.00  0.00  0.91  0.00  0.00  0.00     0.56   0.0001
  207                     1.00   0.08  0.01  0.00  0.17  0.70  0.00  0.05     1.18   0.0003
  206                     1.00   0.09  0.00  0.00  0.04  0.31  0.00  0.56     0.98   0.0004
  205                     1.00   0.09  0.00  0.00  0.59  0.31  0.00  0.01     0.84   0.0003
  204                     1.00   0.09  0.00  0.00  0.00  0.90  0.00  0.01     1.51   0.0002
  203                     1.00   0.08  0.00  0.00  0.00  0.91  0.00  0.01     2.32   0.0002
  202                     1.00   0.08  0.00  0.00  0.00  0.90  0.00  0.02     2.44   0.0002
  201                     1.00   0.07  0.00  0.00  0.00  0.90  0.00  0.03     2.50   0.0002
  200                     1.00   0.07  0.00  0.00  0.03  0.90  0.00  0.00     1.25   0.0002
  199                     1.00   0.06  0.00  0.00  0.15  0.33  0.00  0.46     1.21   0.0002
  198                     1.00   0.06  0.01  0.00  0.93  0.00  0.00  0.00     0.53   0.0001
  197                     1.00   0.07  0.00  0.00  0.00  0.29  0.00  0.64     2.14   0.0002
  196                     1.00   0.07  0.00  0.00  0.00  0.92  0.00  0.01     2.01   0.0002
  195                     1.00   0.07  0.00  0.00  0.00  0.93  0.00  0.00     1.95   0.0001
  194                     1.00   0.07  0.02  0.00  0.00  0.90  0.00  0.01     2.15   0.0002
  193                     1.00   0.09  0.00  0.00  0.00  0.91  0.00  0.00     1.54   0.0002
  192                     1.00   0.06  0.00  0.00  0.00  0.93  0.00  0.01     1.61   0.0002
  191                     1.00   0.06  0.02  0.00  0.00  0.18  0.00  0.73     1.89   0.0003
  190                     1.00   0.08  0.00  0.00  0.38  0.00  0.00  0.54     0.87   0.0004
  18962                   1.00   0.06  0.00  0.00  0.00  0.08  0.00  0.87     2.28   0.0003
  18961                   1.00   0.06  0.00  0.00  0.07  0.87  0.00  0.00     1.54   0.0004
  189                     1.00   0.08  0.01  0.00  0.91  0.00  0.00  0.00     0.38   0.0002
  188                     1.00   0.06  0.02  0.00  0.00  0.92  0.00  0.00     2.78   0.0002
  18777                   1.00   0.08  0.00  0.00  0.00  0.84  0.00  0.08     1.57   0.0068
  18776                   1.42   0.08  0.00  0.00  0.00  0.02  0.00  0.90     3.67   0.0005
  187                     1.00   0.08  0.00  0.00  0.00  0.92  0.00  0.00     2.06   0.0001
  186                     1.00   0.08  0.00  0.00  0.00  0.31  0.00  0.61     1.49   0.0002
  185                     1.00   0.07  0.00  0.00  0.00  0.91  0.00  0.02     1.86   0.0002
  184                     1.00   0.07  0.00  0.00  0.00  0.88  0.00  0.05     2.33   0.0002
  183                     1.00   0.06  0.00  0.00  0.00  0.27  0.00  0.67     1.90   0.0003
  182                     1.00   0.06  0.01  0.00  0.01  0.92  0.00  0.00     1.87   0.0002
  181                     1.00   0.07  0.00  0.00  0.00  0.32  0.00  0.61     1.89   0.0002
  180                     1.00   0.07  0.00  0.00  0.00  0.91  0.00  0.02     1.99   0.0002
  176                     1.00   0.07  0.00  0.00  0.00  0.00  0.00  0.93     2.40   0.0002
  175                     1.00   0.07  0.00  0.00  0.22  0.69  0.00  0.03     1.43   0.0002
  174                     1.00   0.06  0.00  0.00  0.00  0.92  0.00  0.02     1.93   0.0002
  173                     1.00   0.06  0.00  0.00  0.00  0.94  0.00  0.00     1.89   0.0001
  172                     1.00   0.06  0.00  0.00  0.00  0.50  0.00  0.43     1.88   0.0001
  171                     1.00   0.06  0.00  0.00  0.00  0.93  0.00  0.01     1.70   0.0001
  170                     1.00   0.06  0.00  0.00  0.36  0.58  0.00  0.00     1.19   0.0000
  169                     1.00   0.08  0.01  0.00  0.91  0.00  0.00  0.00     0.13   0.0001
  168                     1.00   0.08  0.00  0.00  0.36  0.55  0.00  0.01     1.16   0.0000
  167                     1.00   0.08  0.00  0.00  0.07  0.37  0.00  0.48     1.08   0.0002
  166                     1.00   0.07  0.00  0.00  0.00  0.30  0.00  0.64     1.17   0.0001
  165                     1.00   0.08  0.02  0.00  0.47  0.41  0.00  0.01     0.99   0.0002
  164                     1.00   0.06  0.00  0.00  0.92  0.02  0.00  0.00     0.06   0.0012
  163                     1.00   0.08  0.00  0.00  0.00  0.00  0.00  0.92     1.93   0.0255
  161                     1.00   0.07  0.00  0.00  0.00  0.17  0.00  0.75     1.98   0.0006
  160                     1.00   0.07  0.00  0.00  0.00  0.92  0.00  0.01     2.19   0.0003
  159                     1.00   0.07  0.00  0.00  0.00  0.93  0.00  0.00     2.34   0.0002
  158                     1.00   0.06  0.00  0.00  0.00  0.27  0.00  0.67     2.09   0.0003
  156                     1.00   0.07  0.01  0.00  0.00  0.93  0.00  0.00     1.87   0.0002
  155                     1.00   0.07  0.00  0.00  0.00  0.91  0.00  0.02     1.88   0.0002
  154                     1.00   0.07  0.02  0.00  0.00  0.91  0.00  0.00     1.88   0.0002
  153                     1.00   0.08  0.00  0.00  0.00  0.90  0.00  0.02     1.96   0.0001
  152                     1.00   0.07  0.00  0.00  0.30  0.20  0.00  0.43     1.03   0.0002
  151                     1.00   0.06  0.00  0.00  0.55  0.37  0.00  0.01     0.98   0.0001
  150                     1.00   0.06  0.00  0.00  0.00  0.44  0.00  0.49     1.60   0.0002
  149                     1.00   0.06  0.00  0.00  0.00  0.93  0.00  0.00     1.49   0.0001
  148                     1.00   0.09  0.00  0.00  0.00  0.00  0.00  0.91     2.39   0.0001
  147                     1.00   0.08  0.00  0.00  0.00  0.00  0.00  0.92     1.80   0.0002
  146                     1.00   0.07  0.00  0.00  0.00  0.91  0.00  0.02     2.13   0.0001
  145                     1.00   0.07  0.01  0.00  0.00  0.00  0.00  0.91     1.60   0.0004
  144                     1.00   0.08  0.00  0.00  0.19  0.54  0.00  0.19     1.47   0.0005
  143                     1.00   0.09  0.00  0.00  0.31  0.31  0.00  0.29     1.55   0.0001
  142                     1.00   0.08  0.00  0.00  0.00  0.89  0.00  0.02     2.30   0.0001
  141                     1.00   0.08  0.00  0.00  0.00  0.88  0.00  0.04     2.35   0.0001
  140                     1.00   0.08  0.00  0.00  0.00  0.91  0.00  0.01     2.21   0.0001
  139                     1.00   0.07  0.00  0.00  0.00  0.63  0.00  0.29     2.14   0.0003
  138                     1.00   0.07  0.00  0.00  0.00  0.92  0.00  0.00     1.97   0.0002
  137                     1.00   0.08  0.01  0.00  0.00  0.37  0.00  0.54     1.65   0.0003
  136                     1.00   0.09  0.00  0.00  0.00  0.91  0.00  0.00     1.71   0.0001
  135                     1.00   0.09  0.00  0.00  0.00  0.91  0.00  0.01     1.90   0.0001
  134                     1.00   0.08  0.00  0.00  0.00  0.47  0.00  0.46     1.61   0.0001
  133                     1.00   0.01  0.00  0.00  0.00  0.92  0.00  0.07     2.17   0.0002
  18969                   1.00   0.12  0.00  0.00  0.00  0.00  0.00  0.88     2.44   0.0004
  18966                   1.00   0.06  0.94  0.00  0.00  0.00  0.00  0.00     0.00   0.0000
  20606                   1.00   0.06  0.00  0.00  0.68  0.26  0.00  0.00     0.54   0.0001
  20605                   1.00   0.06  0.00  0.00  0.00  0.94  0.00  0.00     1.68   0.0002
  20604                   1.00   0.06  0.00  0.00  0.01  0.93  0.00  0.00     1.73   0.0001
  20603                   1.00   0.06  0.00  0.00  0.00  0.94  0.00  0.00     1.49   0.0002
  20602                   1.00   0.06  0.00  0.00  0.18  0.76  0.00  0.00     1.13   0.0002
  18979                   1.00   0.06  0.00  0.00  0.66  0.28  0.00  0.00     0.74   0.0007
  18959                   1.00   0.06  0.00  0.00  0.05  0.05  0.00  0.84     1.17   0.0005
  18958                   1.00   0.06  0.00  0.00  0.00  0.00  0.00  0.94     1.40   0.0006
  18957                   1.00   0.06  0.00  0.00  0.14  0.81  0.00  0.00     1.17   0.0006
  18955                   1.00   0.06  0.00  0.00  0.04  0.12  0.00  0.78     1.36   0.0006
  18954                   1.00   0.06  0.00  0.00  0.04  0.90  0.00  0.00     1.34   0.0004
  18953                   1.00   0.06  0.00  0.00  0.00  0.94  0.00  0.00     1.70   0.0003
  18952                   1.00   0.06  0.00  0.00  0.01  0.94  0.00  0.00     1.92   0.0002
  18951                   1.00   0.06  0.00  0.00  0.00  0.00  0.00  0.94     1.81   0.0005
  18950                   1.00   0.06  0.00  0.00  0.03  0.92  0.00  0.00     1.38   0.0004
  18949                   1.00   0.06  0.00  0.00  0.00  0.22  0.00  0.72     1.96   0.0001
  18948                   1.00   0.06  0.00  0.00  0.00  0.94  0.00  0.00     1.60   0.0001
  18947                   1.00   0.07  0.00  0.00  0.00  0.19  0.00  0.74     1.73   0.0001
  18946                   1.00   0.06  0.00  0.00  0.00  0.00  0.00  0.94     1.04   0.0007
  18945                   1.00   0.08  0.00  0.00  0.00  0.00  0.00  0.92     0.91   0.0002
  18944                   1.00   0.08  0.00  0.00  0.04  0.18  0.00  0.69     1.27   0.0001
  18942                   1.00   0.06  0.00  0.00  0.91  0.03  0.00  0.00     0.55   0.0007
  18941                   1.00   0.06  0.00  0.00  0.34  0.60  0.00  0.00     1.07   0.0001
  18940                   1.00   0.06  0.00  0.00  0.83  0.12  0.00  0.00     0.79   0.0003
  18939                   1.00   0.06  0.00  0.00  0.22  0.73  0.00  0.00     1.19   0.0002
  18938                   1.00   0.06  0.00  0.00  0.57  0.37  0.00  0.00     0.86   0.0001
  18937                   1.00   0.07  0.00  0.00  0.00  0.00  0.00  0.93     1.89   0.0002
  18936                   1.00   0.06  0.00  0.00  0.00  0.94  0.00  0.00     1.69   0.0002
  18935                   1.00   0.07  0.00  0.00  0.00  0.08  0.00  0.86     1.66   0.0001
  18934                   1.00   0.06  0.00  0.00  0.01  0.94  0.00  0.00     1.74   0.0002
  18933                   1.00   0.06  0.00  0.00  0.58  0.36  0.00  0.00     0.91   0.0001
  18932                   1.00   0.06  0.00  0.00  0.00  0.94  0.00  0.00     1.68   0.0002
  18931                   1.00   0.06  0.00  0.00  0.00  0.00  0.00  0.94     1.19   0.0002
  18930                   1.00   0.06  0.00  0.00  0.94  0.00  0.00  0.00     0.36   0.0005
  18929                   1.00   0.06  0.00  0.00  0.94  0.00  0.00  0.00     0.65   0.0007
  18928                   1.00   0.06  0.00  0.00  0.92  0.02  0.00  0.00     0.56   0.0001
  18927                   1.00   0.06  0.00  0.00  0.00  0.94  0.00  0.00     1.75   0.0001
  18926                   1.00   0.06  0.00  0.00  0.24  0.71  0.00  0.00     1.26   0.0002
  18925                   1.00   0.06  0.00  0.00  0.00  0.15  0.00  0.79     1.25   0.0002
  18924                   1.00   0.06  0.00  0.00  0.00  0.73  0.00  0.21     1.45   0.0002
  18923                   1.00   0.06  0.00  0.00  0.60  0.34  0.00  0.00     0.92   0.0001
  18922                   1.00   0.06  0.00  0.00  0.01  0.94  0.00  0.00     1.65   0.0001
  18921                   1.00   0.06  0.00  0.00  0.00  0.00  0.00  0.94     1.93   0.0001
  18920                   1.00   0.06  0.00  0.00  0.26  0.68  0.00  0.00     1.40   0.0001
  18919                   1.00   0.06  0.00  0.00  0.53  0.41  0.00  0.00     0.98   0.0000
  18918                   1.00   0.06  0.00  0.00  0.00  0.00  0.00  0.94     0.66   0.0007
  18917                   1.00   0.06  0.00  0.00  0.65  0.30  0.00  0.00     0.91   0.0001
  18916                   1.00   0.06  0.03  0.00  0.23  0.69  0.00  0.00     1.25   0.0000
  18915                   1.00   0.06  0.00  0.00  0.70  0.25  0.00  0.00     0.75   0.0001
  18914                   1.00   0.06  0.00  0.00  0.07  0.88  0.00  0.00     1.43   0.0001
  18910                   1.00   0.06  0.00  0.00  0.02  0.22  0.00  0.70     2.49   0.0005
  18909                   1.00   0.06  0.00  0.00  0.01  0.93  0.00  0.00     2.07   0.0003
  18907                   1.00   0.06  0.00  0.00  0.00  0.03  0.00  0.91     2.77   0.0003
  18906                   1.00   0.06  0.00  0.00  0.03  0.14  0.00  0.77     1.27   0.0002
  18905                   1.00   0.06  0.00  0.00  0.00  0.00  0.00  0.94     2.04   0.0003
  18904                   1.00   0.06  0.00  0.00  0.03  0.92  0.00  0.00     1.55   0.0002
  18903                   1.00   0.06  0.00  0.00  0.75  0.19  0.00  0.00     0.78   0.0003
  18902                   1.00   0.06  0.03  0.00  0.59  0.32  0.00  0.00     0.87   0.0003
  18901                   1.00   0.06  0.00  0.00  0.00  0.94  0.00  0.00     2.21   0.0003
  18900                   1.00   0.06  0.00  0.00  0.01  0.93  0.00  0.00     1.45   0.0002
  18899                   1.00   0.06  0.00  0.00  0.49  0.45  0.00  0.00     1.06   0.0001
  18898                   1.00   0.06  0.00  0.00  0.68  0.27  0.00  0.00     0.73   0.0000
  18895                   1.00   0.06  0.00  0.00  0.00  0.94  0.00  0.00     1.68   0.0003
  18894                   1.00   0.06  0.00  0.00  0.33  0.62  0.00  0.00     1.16   0.0001
  18893                   1.00   0.06  0.00  0.00  0.00  0.00  0.00  0.94     1.97   0.0002
  18892                   1.00   0.06  0.00  0.00  0.00  0.00  0.00  0.94     2.31   0.0001
  18891                   1.00   0.06  0.00  0.00  0.21  0.74  0.00  0.00     1.33   0.0001
  18890                   1.00   0.06  0.00  0.00  0.15  0.79  0.00  0.00     1.39   0.0001
  18889                   1.00   0.06  0.00  0.00  0.48  0.46  0.00  0.00     1.04   0.0000
  
  
  *************************
  Conduit Surcharge Summary
  *************************
  
  ----------------------------------------------------------------------------
                                                           Hours        Hours 
                         --------- Hours Full --------   Above Full   Capacity
  Conduit                Both Ends  Upstream  Dnstream   Normal Flow   Limited
  ----------------------------------------------------------------------------
  245                         0.01      0.01      0.01      0.01         0.01
  20576                       0.07      0.07      0.07      0.03         0.03
  20583                       0.05      0.05      0.05      0.01         0.01
  20595                       0.73      0.73      0.73      0.03         0.01
  228                         0.01      0.01      0.01      0.03         0.01
  217                         0.01      0.01      0.01      0.06         0.01
  206                         0.01      0.01      0.01      0.03         0.01
  190                         0.01      0.01      0.01      0.09         0.01
  18961                       0.21      0.21      0.21      0.01         0.01
  18777                       0.01      0.01      0.01      0.03         0.01
  164                         0.65      0.65      0.65      0.01         0.01
  163                         0.01      0.01      0.01      0.07         0.01
  161                         0.01      0.01      0.01      0.01         0.01
  18979                       0.47      0.47      0.47      0.50         0.47
  18959                       0.04      0.04      0.04      0.01         0.01
  18958                       0.33      0.33      0.33      0.42         0.33
  18957                       0.38      0.38      0.38      0.42         0.38
  18955                       0.05      0.05      0.05      0.17         0.05
  18954                       0.04      0.04      0.04      0.01         0.01
  18951                       0.01      0.01      0.01      0.05         0.01
  18946                       0.14      0.14      0.14      0.51         0.14
  18942                       0.43      0.43      0.43      0.01         0.01
  18930                       0.20      0.20      0.20      0.01         0.01
  18929                       0.35      0.35      0.35      0.01         0.01
  18918                       0.01      0.01      0.01      0.24         0.01
  18910                       0.08      0.08      0.08      0.12         0.08
  
  
  ***************
  Pumping Summary
  ***************
  
  ---------------------------------------------------------------------------------------------------------
                                                  Min       Avg       Max     Total     Power    % Time Off
                        Percent   Number of      Flow      Flow      Flow    Volume     Usage    Pump Curve
  Pump                 Utilized   Start-Ups       CMS       CMS       CMS  10^6 ltr     Kw-hr    Low   High
  ---------------------------------------------------------------------------------------------------------
  238245                  57.27           1      0.00      0.02      0.02     0.099     25.94    0.0  100.0
  2382452                 57.27           1      0.00      0.02      0.02     0.099     25.94    0.0  100.0
  2382453                 57.27           1      0.00      0.02      0.02     0.099     25.94    0.0  100.0
  

  Analysis begun on:  Sun Oct 04 18:14:05 2020
  Analysis ended on:  Sun Oct 04 18:14:08 2020
  Total elapsed time: 00:00:03