  Page 1                                    Sun Oct 04 18:05:47 2020

  ******************************************************************
  *                           E P A N E T                          *
  *                   Hydraulic and Water Quality                  *
  *                   Analysis for Pipe Networks                   *
  *                         Version 2.00.12                        *
  ******************************************************************
  
   
      Input Data File ................... C:/Users/user/Desktop/r1.inp
      Number of Junctions................ 232
      Number of Reservoirs............... 3
      Number of Tanks ................... 2
      Number of Pipes ................... 261
      Number of Pumps ................... 3
      Number of Valves .................. 2
      Headloss Formula .................. Darcy-Weisbach
      Hydraulic Timestep ................ 0.50 hrs
      Hydraulic Accuracy ................ 0.001000
      Status Check Frequency ............ 2
      Maximum Trials Checked ............ 10
      Damping Limit Threshold ........... 0.000000
      Maximum Trials .................... 40
      Quality Analysis .................. None
      Specific Gravity .................. 1.00
      Relative Kinematic Viscosity ...... 1.00
      Relative Chemical Diffusivity ..... 1.00
      Demand Multiplier ................. 1.00
      Total Duration .................... 24.00 hrs
      Reporting Criteria:
         All Nodes
         All Links
   
  Analysis begun Sun Oct 04 18:05:47 2020

   
  Hydraulic Status:
  -----------------------------------------------------------------------
     0:00:00: Balanced after 10 trials
     0:00:00: Reservoir 1101 is closed
     0:00:00: Reservoir 1097 is emptying
     0:00:00: Reservoir 111111 is emptying
     0:00:00: Tank 113766 is filling at 1.00 m
     0:00:00: Tank 113952 is filling at 1.00 m
   
     0:30:00: Balanced after 2 trials
   
     1:00:00: Balanced after 2 trials
   
     1:30:00: Balanced after 2 trials
   
     2:00:00: Balanced after 2 trials
   
     2:30:00: Balanced after 2 trials
   
     3:00:00: Balanced after 2 trials
   
     3:30:00: Balanced after 2 trials
   
     4:00:00: Balanced after 2 trials
   
     4:30:00: Balanced after 2 trials
   
     5:00:00: Balanced after 2 trials
   
     5:30:00: Balanced after 2 trials
   
     5:41:48: Balanced after 3 trials
     5:41:48: Reservoir 1097 is closed
     5:41:48: Tank 113766 is emptying at 3.50 m
     5:41:48: Pipe 113907 changed from open to temporarily closed
   
     6:00:00: Balanced after 19 trials
     6:00:00: Reservoir 1097 is emptying
     6:00:00: Tank 113766 is filling at 3.47 m
     6:00:00: Pipe 113907 changed from temporarily closed to open
   
     6:04:30: Balanced after 3 trials
     6:04:30: Reservoir 1097 is closed
     6:04:30: Tank 113766 is emptying at 3.50 m
     6:04:30: Pipe 113907 changed from open to temporarily closed
   
     6:34:30: Balanced after 19 trials
     6:34:30: Reservoir 1097 is emptying
     6:34:30: Tank 113766 is filling at 3.45 m
     6:34:30: Pipe 113907 changed from temporarily closed to open
   
     6:41:56: Balanced after 3 trials
     6:41:56: Reservoir 1097 is closed
     6:41:56: Tank 113766 is emptying at 3.50 m
     6:41:56: Pipe 113907 changed from open to temporarily closed
   
     7:00:00: Balanced after 19 trials
     7:00:00: Reservoir 1097 is emptying
     7:00:00: Tank 113766 is filling at 3.47 m
     7:00:00: Pipe 113907 changed from temporarily closed to open
   
     7:04:28: Balanced after 3 trials
     7:04:28: Reservoir 1097 is closed
     7:04:28: Tank 113766 is emptying at 3.50 m
     7:04:28: Pipe 113907 changed from open to temporarily closed
   
     7:34:28: Balanced after 19 trials
     7:34:28: Reservoir 1097 is emptying
     7:34:28: Tank 113766 is filling at 3.45 m
     7:34:28: Pipe 113907 changed from temporarily closed to open
   
     7:41:54: Balanced after 3 trials
     7:41:54: Reservoir 1097 is closed
     7:41:54: Tank 113766 is emptying at 3.50 m
     7:41:54: Pipe 113907 changed from open to temporarily closed
   
     8:00:00: Balanced after 19 trials
     8:00:00: Reservoir 1097 is emptying
     8:00:00: Tank 113766 is filling at 3.47 m
     8:00:00: Pipe 113907 changed from temporarily closed to open
   
     8:04:29: Balanced after 3 trials
     8:04:29: Reservoir 1097 is closed
     8:04:29: Tank 113766 is emptying at 3.50 m
     8:04:29: Pipe 113907 changed from open to temporarily closed
   
     8:34:29: Balanced after 19 trials
     8:34:29: Reservoir 1097 is emptying
     8:34:29: Tank 113766 is filling at 3.45 m
     8:34:29: Pipe 113907 changed from temporarily closed to open
   
     8:41:55: Balanced after 3 trials
     8:41:55: Reservoir 1097 is closed
     8:41:55: Tank 113766 is emptying at 3.50 m
     8:41:55: Pipe 113907 changed from open to temporarily closed
   
     9:00:00: Balanced after 19 trials
     9:00:00: Reservoir 1097 is emptying
     9:00:00: Tank 113766 is filling at 3.47 m
     9:00:00: Pipe 113907 changed from temporarily closed to open
   
     9:04:29: Balanced after 3 trials
     9:04:29: Reservoir 1097 is closed
     9:04:29: Tank 113766 is emptying at 3.50 m
     9:04:29: Pipe 113907 changed from open to temporarily closed
   
     9:34:29: Balanced after 19 trials
     9:34:29: Reservoir 1097 is emptying
     9:34:29: Tank 113766 is filling at 3.45 m
     9:34:29: Pipe 113907 changed from temporarily closed to open
   
     9:41:55: Balanced after 3 trials
     9:41:55: Reservoir 1097 is closed
     9:41:55: Tank 113766 is emptying at 3.50 m
     9:41:55: Pipe 113907 changed from open to temporarily closed
   
    10:00:00: Balanced after 19 trials
    10:00:00: Reservoir 1097 is emptying
    10:00:00: Tank 113766 is filling at 3.47 m
    10:00:00: Pipe 113907 changed from temporarily closed to open
   
    10:04:29: Balanced after 3 trials
    10:04:29: Reservoir 1097 is closed
    10:04:29: Tank 113766 is emptying at 3.50 m
    10:04:29: Pipe 113907 changed from open to temporarily closed
   
    10:34:29: Balanced after 19 trials
    10:34:29: Reservoir 1097 is emptying
    10:34:29: Tank 113766 is filling at 3.45 m
    10:34:29: Pipe 113907 changed from temporarily closed to open
   
    10:41:55: Balanced after 3 trials
    10:41:55: Reservoir 1097 is closed
    10:41:55: Tank 113766 is emptying at 3.50 m
    10:41:55: Pipe 113907 changed from open to temporarily closed
   
    11:00:00: Balanced after 19 trials
    11:00:00: Reservoir 1097 is emptying
    11:00:00: Tank 113766 is filling at 3.47 m
    11:00:00: Pipe 113907 changed from temporarily closed to open
   
    11:04:29: Balanced after 3 trials
    11:04:29: Reservoir 1097 is closed
    11:04:29: Tank 113766 is emptying at 3.50 m
    11:04:29: Pipe 113907 changed from open to temporarily closed
   
    11:34:29: Balanced after 19 trials
    11:34:29: Reservoir 1097 is emptying
    11:34:29: Tank 113766 is filling at 3.45 m
    11:34:29: Pipe 113907 changed from temporarily closed to open
   
    11:41:55: Balanced after 3 trials
    11:41:55: Reservoir 1097 is closed
    11:41:55: Tank 113766 is emptying at 3.50 m
    11:41:55: Pipe 113907 changed from open to temporarily closed
   
    11:48:48: Balanced after 19 trials
    11:48:48: Reservoir 1097 is emptying
    11:48:48: Reservoir 111111 is closed
    11:48:48: Tank 113766 is filling at 3.49 m
    11:48:48: Tank 113952 is emptying at 3.50 m
    11:48:48: Pipe 113907 changed from temporarily closed to open
    11:48:48: Pipe 114145 changed from open to temporarily closed
   
    11:50:30: Balanced after 21 trials
    11:50:30: Reservoir 1097 is closed
    11:50:30: Reservoir 111111 is emptying
    11:50:30: Tank 113766 is emptying at 3.50 m
    11:50:30: Tank 113952 is filling at 3.50 m
    11:50:30: Pipe 113907 changed from open to temporarily closed
    11:50:30: Pipe 114145 changed from temporarily closed to open
   
    11:50:39: Balanced after 19 trials
    11:50:39: Reservoir 1097 is emptying
    11:50:39: Reservoir 111111 is closed
    11:50:39: Tank 113766 is filling at 3.50 m
    11:50:39: Tank 113952 is emptying at 3.50 m
    11:50:39: Pipe 113907 changed from temporarily closed to open
    11:50:39: Pipe 114145 changed from open to temporarily closed
   
    11:50:41: Balanced after 3 trials
    11:50:41: Reservoir 1097 is closed
    11:50:41: Tank 113766 is emptying at 3.50 m
    11:50:41: Pipe 113907 changed from open to temporarily closed
   
    12:00:00: Balanced after 21 trials
    12:00:00: Reservoir 1097 is emptying
    12:00:00: Reservoir 111111 is emptying
    12:00:00: Tank 113766 is filling at 3.48 m
    12:00:00: Tank 113952 is filling at 3.50 m
    12:00:00: Pipe 113907 changed from temporarily closed to open
    12:00:00: Pipe 114145 changed from temporarily closed to open
   
    12:00:48: Balanced after 3 trials
    12:00:48: Reservoir 111111 is closed
    12:00:48: Tank 113952 is emptying at 3.50 m
    12:00:48: Pipe 114145 changed from open to temporarily closed
   
    12:02:18: Balanced after 21 trials
    12:02:18: Reservoir 1097 is closed
    12:02:18: Reservoir 111111 is emptying
    12:02:18: Tank 113766 is emptying at 3.50 m
    12:02:18: Tank 113952 is filling at 3.50 m
    12:02:18: Pipe 113907 changed from open to temporarily closed
    12:02:18: Pipe 114145 changed from temporarily closed to open
   
    12:02:26: Balanced after 19 trials
    12:02:26: Reservoir 1097 is emptying
    12:02:26: Reservoir 111111 is closed
    12:02:26: Tank 113766 is filling at 3.50 m
    12:02:26: Tank 113952 is emptying at 3.50 m
    12:02:26: Pipe 113907 changed from temporarily closed to open
    12:02:26: Pipe 114145 changed from open to temporarily closed
   
    12:02:28: Balanced after 3 trials
    12:02:28: Reservoir 1097 is closed
    12:02:28: Tank 113766 is emptying at 3.50 m
    12:02:28: Pipe 113907 changed from open to temporarily closed
   
    12:32:28: Balanced after 21 trials
    12:32:28: Reservoir 1097 is emptying
    12:32:28: Reservoir 111111 is emptying
    12:32:28: Tank 113766 is filling at 3.45 m
    12:32:28: Tank 113952 is filling at 3.49 m
    12:32:28: Pipe 113907 changed from temporarily closed to open
    12:32:28: Pipe 114145 changed from temporarily closed to open
   
    12:35:01: Balanced after 3 trials
    12:35:01: Reservoir 111111 is closed
    12:35:01: Tank 113952 is emptying at 3.50 m
    12:35:01: Pipe 114145 changed from open to temporarily closed
   
    12:39:54: Balanced after 21 trials
    12:39:54: Reservoir 1097 is closed
    12:39:54: Reservoir 111111 is emptying
    12:39:54: Tank 113766 is emptying at 3.50 m
    12:39:54: Tank 113952 is filling at 3.50 m
    12:39:54: Pipe 113907 changed from open to temporarily closed
    12:39:54: Pipe 114145 changed from temporarily closed to open
   
    12:40:19: Balanced after 19 trials
    12:40:19: Reservoir 1097 is emptying
    12:40:19: Reservoir 111111 is closed
    12:40:19: Tank 113766 is filling at 3.50 m
    12:40:19: Tank 113952 is emptying at 3.50 m
    12:40:19: Pipe 113907 changed from temporarily closed to open
    12:40:19: Pipe 114145 changed from open to temporarily closed
   
    12:40:25: Balanced after 3 trials
    12:40:25: Reservoir 1097 is closed
    12:40:25: Tank 113766 is emptying at 3.50 m
    12:40:25: Pipe 113907 changed from open to temporarily closed
   
    13:00:00: Balanced after 21 trials
    13:00:00: Reservoir 1097 is emptying
    13:00:00: Reservoir 111111 is emptying
    13:00:00: Tank 113766 is filling at 3.47 m
    13:00:00: Tank 113952 is filling at 3.49 m
    13:00:00: Pipe 113907 changed from temporarily closed to open
    13:00:00: Pipe 114145 changed from temporarily closed to open
   
    13:01:40: Balanced after 3 trials
    13:01:40: Reservoir 111111 is closed
    13:01:40: Tank 113952 is emptying at 3.50 m
    13:01:40: Pipe 114145 changed from open to temporarily closed
   
    13:04:51: Balanced after 21 trials
    13:04:51: Reservoir 1097 is closed
    13:04:51: Reservoir 111111 is emptying
    13:04:51: Tank 113766 is emptying at 3.50 m
    13:04:51: Tank 113952 is filling at 3.50 m
    13:04:51: Pipe 113907 changed from open to temporarily closed
    13:04:51: Pipe 114145 changed from temporarily closed to open
   
    13:05:07: Balanced after 19 trials
    13:05:07: Reservoir 1097 is emptying
    13:05:07: Reservoir 111111 is closed
    13:05:07: Tank 113766 is filling at 3.50 m
    13:05:07: Tank 113952 is emptying at 3.50 m
    13:05:07: Pipe 113907 changed from temporarily closed to open
    13:05:07: Pipe 114145 changed from open to temporarily closed
   
    13:05:11: Balanced after 3 trials
    13:05:11: Reservoir 1097 is closed
    13:05:11: Tank 113766 is emptying at 3.50 m
    13:05:11: Pipe 113907 changed from open to temporarily closed
   
    13:35:11: Balanced after 21 trials
    13:35:11: Reservoir 1097 is emptying
    13:35:11: Reservoir 111111 is emptying
    13:35:11: Tank 113766 is filling at 3.45 m
    13:35:11: Tank 113952 is filling at 3.49 m
    13:35:11: Pipe 113907 changed from temporarily closed to open
    13:35:11: Pipe 114145 changed from temporarily closed to open
   
    13:37:44: Balanced after 3 trials
    13:37:44: Reservoir 111111 is closed
    13:37:44: Tank 113952 is emptying at 3.50 m
    13:37:44: Pipe 114145 changed from open to temporarily closed
   
    13:42:37: Balanced after 21 trials
    13:42:37: Reservoir 1097 is closed
    13:42:37: Reservoir 111111 is emptying
    13:42:37: Tank 113766 is emptying at 3.50 m
    13:42:37: Tank 113952 is filling at 3.50 m
    13:42:37: Pipe 113907 changed from open to temporarily closed
    13:42:37: Pipe 114145 changed from temporarily closed to open
   
    13:43:02: Balanced after 19 trials
    13:43:02: Reservoir 1097 is emptying
    13:43:02: Reservoir 111111 is closed
    13:43:02: Tank 113766 is filling at 3.50 m
    13:43:02: Tank 113952 is emptying at 3.50 m
    13:43:02: Pipe 113907 changed from temporarily closed to open
    13:43:02: Pipe 114145 changed from open to temporarily closed
   
    13:43:08: Balanced after 3 trials
    13:43:08: Reservoir 1097 is closed
    13:43:08: Tank 113766 is emptying at 3.50 m
    13:43:08: Pipe 113907 changed from open to temporarily closed
   
    14:00:00: Balanced after 21 trials
    14:00:00: Reservoir 1097 is emptying
    14:00:00: Reservoir 111111 is emptying
    14:00:00: Tank 113766 is filling at 3.47 m
    14:00:00: Tank 113952 is filling at 3.49 m
    14:00:00: Pipe 113907 changed from temporarily closed to open
    14:00:00: Pipe 114145 changed from temporarily closed to open
   
    14:01:27: Balanced after 3 trials
    14:01:27: Reservoir 111111 is closed
    14:01:27: Tank 113952 is emptying at 3.50 m
    14:01:27: Pipe 114145 changed from open to temporarily closed
   
    14:04:11: Balanced after 21 trials
    14:04:11: Reservoir 1097 is closed
    14:04:11: Reservoir 111111 is emptying
    14:04:11: Tank 113766 is emptying at 3.50 m
    14:04:11: Tank 113952 is filling at 3.50 m
    14:04:11: Pipe 113907 changed from open to temporarily closed
    14:04:11: Pipe 114145 changed from temporarily closed to open
   
    14:04:25: Balanced after 19 trials
    14:04:25: Reservoir 1097 is emptying
    14:04:25: Reservoir 111111 is closed
    14:04:25: Tank 113766 is filling at 3.50 m
    14:04:25: Tank 113952 is emptying at 3.50 m
    14:04:25: Pipe 113907 changed from temporarily closed to open
    14:04:25: Pipe 114145 changed from open to temporarily closed
   
    14:04:28: Balanced after 3 trials
    14:04:28: Reservoir 1097 is closed
    14:04:28: Tank 113766 is emptying at 3.50 m
    14:04:28: Pipe 113907 changed from open to temporarily closed
   
    14:34:28: Balanced after 21 trials
    14:34:28: Reservoir 1097 is emptying
    14:34:28: Reservoir 111111 is emptying
    14:34:28: Tank 113766 is filling at 3.45 m
    14:34:28: Tank 113952 is filling at 3.49 m
    14:34:28: Pipe 113907 changed from temporarily closed to open
    14:34:28: Pipe 114145 changed from temporarily closed to open
   
    14:37:01: Balanced after 3 trials
    14:37:01: Reservoir 111111 is closed
    14:37:01: Tank 113952 is emptying at 3.50 m
    14:37:01: Pipe 114145 changed from open to temporarily closed
   
    14:41:54: Balanced after 21 trials
    14:41:54: Reservoir 1097 is closed
    14:41:54: Reservoir 111111 is emptying
    14:41:54: Tank 113766 is emptying at 3.50 m
    14:41:54: Tank 113952 is filling at 3.50 m
    14:41:54: Pipe 113907 changed from open to temporarily closed
    14:41:54: Pipe 114145 changed from temporarily closed to open
   
    14:42:19: Balanced after 19 trials
    14:42:19: Reservoir 1097 is emptying
    14:42:19: Reservoir 111111 is closed
    14:42:19: Tank 113766 is filling at 3.50 m
    14:42:19: Tank 113952 is emptying at 3.50 m
    14:42:19: Pipe 113907 changed from temporarily closed to open
    14:42:19: Pipe 114145 changed from open to temporarily closed
   
    14:42:25: Balanced after 3 trials
    14:42:25: Reservoir 1097 is closed
    14:42:25: Tank 113766 is emptying at 3.50 m
    14:42:25: Pipe 113907 changed from open to temporarily closed
   
    15:00:00: Balanced after 21 trials
    15:00:00: Reservoir 1097 is emptying
    15:00:00: Reservoir 111111 is emptying
    15:00:00: Tank 113766 is filling at 3.47 m
    15:00:00: Tank 113952 is filling at 3.49 m
    15:00:00: Pipe 113907 changed from temporarily closed to open
    15:00:00: Pipe 114145 changed from temporarily closed to open
   
    15:01:30: Balanced after 3 trials
    15:01:30: Reservoir 111111 is closed
    15:01:30: Tank 113952 is emptying at 3.50 m
    15:01:30: Pipe 114145 changed from open to temporarily closed
   
    15:04:21: Balanced after 21 trials
    15:04:21: Reservoir 1097 is closed
    15:04:21: Reservoir 111111 is emptying
    15:04:21: Tank 113766 is emptying at 3.50 m
    15:04:21: Tank 113952 is filling at 3.50 m
    15:04:21: Pipe 113907 changed from open to temporarily closed
    15:04:21: Pipe 114145 changed from temporarily closed to open
   
    15:04:36: Balanced after 19 trials
    15:04:36: Reservoir 1097 is emptying
    15:04:36: Reservoir 111111 is closed
    15:04:36: Tank 113766 is filling at 3.50 m
    15:04:36: Tank 113952 is emptying at 3.50 m
    15:04:36: Pipe 113907 changed from temporarily closed to open
    15:04:36: Pipe 114145 changed from open to temporarily closed
   
    15:04:40: Balanced after 3 trials
    15:04:40: Reservoir 1097 is closed
    15:04:40: Tank 113766 is emptying at 3.50 m
    15:04:40: Pipe 113907 changed from open to temporarily closed
   
    15:34:40: Balanced after 21 trials
    15:34:40: Reservoir 1097 is emptying
    15:34:40: Reservoir 111111 is emptying
    15:34:40: Tank 113766 is filling at 3.45 m
    15:34:40: Tank 113952 is filling at 3.49 m
    15:34:40: Pipe 113907 changed from temporarily closed to open
    15:34:40: Pipe 114145 changed from temporarily closed to open
   
    15:37:13: Balanced after 3 trials
    15:37:13: Reservoir 111111 is closed
    15:37:13: Tank 113952 is emptying at 3.50 m
    15:37:13: Pipe 114145 changed from open to temporarily closed
   
    15:42:06: Balanced after 21 trials
    15:42:06: Reservoir 1097 is closed
    15:42:06: Reservoir 111111 is emptying
    15:42:06: Tank 113766 is emptying at 3.50 m
    15:42:06: Tank 113952 is filling at 3.50 m
    15:42:06: Pipe 113907 changed from open to temporarily closed
    15:42:06: Pipe 114145 changed from temporarily closed to open
   
    15:42:31: Balanced after 19 trials
    15:42:31: Reservoir 1097 is emptying
    15:42:31: Reservoir 111111 is closed
    15:42:31: Tank 113766 is filling at 3.50 m
    15:42:31: Tank 113952 is emptying at 3.50 m
    15:42:31: Pipe 113907 changed from temporarily closed to open
    15:42:31: Pipe 114145 changed from open to temporarily closed
   
    15:42:37: Balanced after 3 trials
    15:42:37: Reservoir 1097 is closed
    15:42:37: Tank 113766 is emptying at 3.50 m
    15:42:37: Pipe 113907 changed from open to temporarily closed
   
    16:00:00: Balanced after 21 trials
    16:00:00: Reservoir 1097 is emptying
    16:00:00: Reservoir 111111 is emptying
    16:00:00: Tank 113766 is filling at 3.47 m
    16:00:00: Tank 113952 is filling at 3.49 m
    16:00:00: Pipe 113907 changed from temporarily closed to open
    16:00:00: Pipe 114145 changed from temporarily closed to open
   
    16:01:29: Balanced after 3 trials
    16:01:29: Reservoir 111111 is closed
    16:01:29: Tank 113952 is emptying at 3.50 m
    16:01:29: Pipe 114145 changed from open to temporarily closed
   
    16:04:18: Balanced after 21 trials
    16:04:18: Reservoir 1097 is closed
    16:04:18: Reservoir 111111 is emptying
    16:04:18: Tank 113766 is emptying at 3.50 m
    16:04:18: Tank 113952 is filling at 3.50 m
    16:04:18: Pipe 113907 changed from open to temporarily closed
    16:04:18: Pipe 114145 changed from temporarily closed to open
   
    16:04:32: Balanced after 19 trials
    16:04:32: Reservoir 1097 is emptying
    16:04:32: Reservoir 111111 is closed
    16:04:32: Tank 113766 is filling at 3.50 m
    16:04:32: Tank 113952 is emptying at 3.50 m
    16:04:32: Pipe 113907 changed from temporarily closed to open
    16:04:32: Pipe 114145 changed from open to temporarily closed
   
    16:04:35: Balanced after 3 trials
    16:04:35: Reservoir 1097 is closed
    16:04:35: Tank 113766 is emptying at 3.50 m
    16:04:35: Pipe 113907 changed from open to temporarily closed
   
    16:34:35: Balanced after 21 trials
    16:34:35: Reservoir 1097 is emptying
    16:34:35: Reservoir 111111 is emptying
    16:34:35: Tank 113766 is filling at 3.45 m
    16:34:35: Tank 113952 is filling at 3.49 m
    16:34:35: Pipe 113907 changed from temporarily closed to open
    16:34:35: Pipe 114145 changed from temporarily closed to open
   
    16:37:08: Balanced after 3 trials
    16:37:08: Reservoir 111111 is closed
    16:37:08: Tank 113952 is emptying at 3.50 m
    16:37:08: Pipe 114145 changed from open to temporarily closed
   
    16:42:01: Balanced after 21 trials
    16:42:01: Reservoir 1097 is closed
    16:42:01: Reservoir 111111 is emptying
    16:42:01: Tank 113766 is emptying at 3.50 m
    16:42:01: Tank 113952 is filling at 3.50 m
    16:42:01: Pipe 113907 changed from open to temporarily closed
    16:42:01: Pipe 114145 changed from temporarily closed to open
   
    16:42:26: Balanced after 19 trials
    16:42:26: Reservoir 1097 is emptying
    16:42:26: Reservoir 111111 is closed
    16:42:26: Tank 113766 is filling at 3.50 m
    16:42:26: Tank 113952 is emptying at 3.50 m
    16:42:26: Pipe 113907 changed from temporarily closed to open
    16:42:26: Pipe 114145 changed from open to temporarily closed
   
    16:42:32: Balanced after 3 trials
    16:42:32: Reservoir 1097 is closed
    16:42:32: Tank 113766 is emptying at 3.50 m
    16:42:32: Pipe 113907 changed from open to temporarily closed
   
    17:00:00: Balanced after 21 trials
    17:00:00: Reservoir 1097 is emptying
    17:00:00: Reservoir 111111 is emptying
    17:00:00: Tank 113766 is filling at 3.47 m
    17:00:00: Tank 113952 is filling at 3.49 m
    17:00:00: Pipe 113907 changed from temporarily closed to open
    17:00:00: Pipe 114145 changed from temporarily closed to open
   
    17:01:30: Balanced after 3 trials
    17:01:30: Reservoir 111111 is closed
    17:01:30: Tank 113952 is emptying at 3.50 m
    17:01:30: Pipe 114145 changed from open to temporarily closed
   
    17:04:20: Balanced after 21 trials
    17:04:20: Reservoir 1097 is closed
    17:04:20: Reservoir 111111 is emptying
    17:04:20: Tank 113766 is emptying at 3.50 m
    17:04:20: Tank 113952 is filling at 3.50 m
    17:04:20: Pipe 113907 changed from open to temporarily closed
    17:04:20: Pipe 114145 changed from temporarily closed to open
   
    17:04:34: Balanced after 19 trials
    17:04:34: Reservoir 1097 is emptying
    17:04:34: Reservoir 111111 is closed
    17:04:34: Tank 113766 is filling at 3.50 m
    17:04:34: Tank 113952 is emptying at 3.50 m
    17:04:34: Pipe 113907 changed from temporarily closed to open
    17:04:34: Pipe 114145 changed from open to temporarily closed
   
    17:04:37: Balanced after 3 trials
    17:04:37: Reservoir 1097 is closed
    17:04:37: Tank 113766 is emptying at 3.50 m
    17:04:37: Pipe 113907 changed from open to temporarily closed
   
    17:34:37: Balanced after 21 trials
    17:34:37: Reservoir 1097 is emptying
    17:34:37: Reservoir 111111 is emptying
    17:34:37: Tank 113766 is filling at 3.45 m
    17:34:37: Tank 113952 is filling at 3.49 m
    17:34:37: Pipe 113907 changed from temporarily closed to open
    17:34:37: Pipe 114145 changed from temporarily closed to open
   
    17:37:10: Balanced after 3 trials
    17:37:10: Reservoir 111111 is closed
    17:37:10: Tank 113952 is emptying at 3.50 m
    17:37:10: Pipe 114145 changed from open to temporarily closed
   
    17:42:03: Balanced after 21 trials
    17:42:03: Reservoir 1097 is closed
    17:42:03: Reservoir 111111 is emptying
    17:42:03: Tank 113766 is emptying at 3.50 m
    17:42:03: Tank 113952 is filling at 3.50 m
    17:42:03: Pipe 113907 changed from open to temporarily closed
    17:42:03: Pipe 114145 changed from temporarily closed to open
   
    17:42:28: Balanced after 19 trials
    17:42:28: Reservoir 1097 is emptying
    17:42:28: Reservoir 111111 is closed
    17:42:28: Tank 113766 is filling at 3.50 m
    17:42:28: Tank 113952 is emptying at 3.50 m
    17:42:28: Pipe 113907 changed from temporarily closed to open
    17:42:28: Pipe 114145 changed from open to temporarily closed
   
    17:42:34: Balanced after 3 trials
    17:42:34: Reservoir 1097 is closed
    17:42:34: Tank 113766 is emptying at 3.50 m
    17:42:34: Pipe 113907 changed from open to temporarily closed
   
    18:00:00: Balanced after 21 trials
    18:00:00: Reservoir 1097 is emptying
    18:00:00: Reservoir 111111 is emptying
    18:00:00: Tank 113766 is filling at 3.47 m
    18:00:00: Tank 113952 is filling at 3.49 m
    18:00:00: Pipe 113907 changed from temporarily closed to open
    18:00:00: Pipe 114145 changed from temporarily closed to open
   
    18:01:29: Balanced after 3 trials
    18:01:29: Reservoir 111111 is closed
    18:01:29: Tank 113952 is emptying at 3.50 m
    18:01:29: Pipe 114145 changed from open to temporarily closed
   
    18:04:19: Balanced after 21 trials
    18:04:19: Reservoir 1097 is closed
    18:04:19: Reservoir 111111 is emptying
    18:04:19: Tank 113766 is emptying at 3.50 m
    18:04:19: Tank 113952 is filling at 3.50 m
    18:04:19: Pipe 113907 changed from open to temporarily closed
    18:04:19: Pipe 114145 changed from temporarily closed to open
   
    18:04:33: Balanced after 19 trials
    18:04:33: Reservoir 1097 is emptying
    18:04:33: Reservoir 111111 is closed
    18:04:33: Tank 113766 is filling at 3.50 m
    18:04:33: Tank 113952 is emptying at 3.50 m
    18:04:33: Pipe 113907 changed from temporarily closed to open
    18:04:33: Pipe 114145 changed from open to temporarily closed
   
    18:04:36: Balanced after 3 trials
    18:04:36: Reservoir 1097 is closed
    18:04:36: Tank 113766 is emptying at 3.50 m
    18:04:36: Pipe 113907 changed from open to temporarily closed
   
    18:34:36: Balanced after 21 trials
    18:34:36: Reservoir 1097 is emptying
    18:34:36: Reservoir 111111 is emptying
    18:34:36: Tank 113766 is filling at 3.45 m
    18:34:36: Tank 113952 is filling at 3.49 m
    18:34:36: Pipe 113907 changed from temporarily closed to open
    18:34:36: Pipe 114145 changed from temporarily closed to open
   
    18:37:09: Balanced after 3 trials
    18:37:09: Reservoir 111111 is closed
    18:37:09: Tank 113952 is emptying at 3.50 m
    18:37:09: Pipe 114145 changed from open to temporarily closed
   
    18:42:02: Balanced after 21 trials
    18:42:02: Reservoir 1097 is closed
    18:42:02: Reservoir 111111 is emptying
    18:42:02: Tank 113766 is emptying at 3.50 m
    18:42:02: Tank 113952 is filling at 3.50 m
    18:42:02: Pipe 113907 changed from open to temporarily closed
    18:42:02: Pipe 114145 changed from temporarily closed to open
   
    18:42:27: Balanced after 19 trials
    18:42:27: Reservoir 1097 is emptying
    18:42:27: Reservoir 111111 is closed
    18:42:27: Tank 113766 is filling at 3.50 m
    18:42:27: Tank 113952 is emptying at 3.50 m
    18:42:27: Pipe 113907 changed from temporarily closed to open
    18:42:27: Pipe 114145 changed from open to temporarily closed
   
    18:42:33: Balanced after 3 trials
    18:42:33: Reservoir 1097 is closed
    18:42:33: Tank 113766 is emptying at 3.50 m
    18:42:33: Pipe 113907 changed from open to temporarily closed
   
    19:00:00: Balanced after 21 trials
    19:00:00: Reservoir 1097 is emptying
    19:00:00: Reservoir 111111 is emptying
    19:00:00: Tank 113766 is filling at 3.47 m
    19:00:00: Tank 113952 is filling at 3.49 m
    19:00:00: Pipe 113907 changed from temporarily closed to open
    19:00:00: Pipe 114145 changed from temporarily closed to open
   
    19:01:29: Balanced after 3 trials
    19:01:29: Reservoir 111111 is closed
    19:01:29: Tank 113952 is emptying at 3.50 m
    19:01:29: Pipe 114145 changed from open to temporarily closed
   
    19:04:19: Balanced after 21 trials
    19:04:19: Reservoir 1097 is closed
    19:04:19: Reservoir 111111 is emptying
    19:04:19: Tank 113766 is emptying at 3.50 m
    19:04:19: Tank 113952 is filling at 3.50 m
    19:04:19: Pipe 113907 changed from open to temporarily closed
    19:04:19: Pipe 114145 changed from temporarily closed to open
   
    19:04:33: Balanced after 19 trials
    19:04:33: Reservoir 1097 is emptying
    19:04:33: Reservoir 111111 is closed
    19:04:33: Tank 113766 is filling at 3.50 m
    19:04:33: Tank 113952 is emptying at 3.50 m
    19:04:33: Pipe 113907 changed from temporarily closed to open
    19:04:33: Pipe 114145 changed from open to temporarily closed
   
    19:04:36: Balanced after 3 trials
    19:04:36: Reservoir 1097 is closed
    19:04:36: Tank 113766 is emptying at 3.50 m
    19:04:36: Pipe 113907 changed from open to temporarily closed
   
    19:34:36: Balanced after 21 trials
    19:34:36: Reservoir 1097 is emptying
    19:34:36: Reservoir 111111 is emptying
    19:34:36: Tank 113766 is filling at 3.45 m
    19:34:36: Tank 113952 is filling at 3.49 m
    19:34:36: Pipe 113907 changed from temporarily closed to open
    19:34:36: Pipe 114145 changed from temporarily closed to open
   
    19:37:09: Balanced after 3 trials
    19:37:09: Reservoir 111111 is closed
    19:37:09: Tank 113952 is emptying at 3.50 m
    19:37:09: Pipe 114145 changed from open to temporarily closed
   
    19:42:02: Balanced after 21 trials
    19:42:02: Reservoir 1097 is closed
    19:42:02: Reservoir 111111 is emptying
    19:42:02: Tank 113766 is emptying at 3.50 m
    19:42:02: Tank 113952 is filling at 3.50 m
    19:42:02: Pipe 113907 changed from open to temporarily closed
    19:42:02: Pipe 114145 changed from temporarily closed to open
   
    19:42:27: Balanced after 19 trials
    19:42:27: Reservoir 1097 is emptying
    19:42:27: Reservoir 111111 is closed
    19:42:27: Tank 113766 is filling at 3.50 m
    19:42:27: Tank 113952 is emptying at 3.50 m
    19:42:27: Pipe 113907 changed from temporarily closed to open
    19:42:27: Pipe 114145 changed from open to temporarily closed
   
    19:42:33: Balanced after 3 trials
    19:42:33: Reservoir 1097 is closed
    19:42:33: Tank 113766 is emptying at 3.50 m
    19:42:33: Pipe 113907 changed from open to temporarily closed
   
    20:00:00: Balanced after 21 trials
    20:00:00: Reservoir 1097 is emptying
    20:00:00: Reservoir 111111 is emptying
    20:00:00: Tank 113766 is filling at 3.47 m
    20:00:00: Tank 113952 is filling at 3.49 m
    20:00:00: Pipe 113907 changed from temporarily closed to open
    20:00:00: Pipe 114145 changed from temporarily closed to open
   
    20:01:29: Balanced after 3 trials
    20:01:29: Reservoir 111111 is closed
    20:01:29: Tank 113952 is emptying at 3.50 m
    20:01:29: Pipe 114145 changed from open to temporarily closed
   
    20:04:19: Balanced after 21 trials
    20:04:19: Reservoir 1097 is closed
    20:04:19: Reservoir 111111 is emptying
    20:04:19: Tank 113766 is emptying at 3.50 m
    20:04:19: Tank 113952 is filling at 3.50 m
    20:04:19: Pipe 113907 changed from open to temporarily closed
    20:04:19: Pipe 114145 changed from temporarily closed to open
   
    20:04:33: Balanced after 19 trials
    20:04:33: Reservoir 1097 is emptying
    20:04:33: Reservoir 111111 is closed
    20:04:33: Tank 113766 is filling at 3.50 m
    20:04:33: Tank 113952 is emptying at 3.50 m
    20:04:33: Pipe 113907 changed from temporarily closed to open
    20:04:33: Pipe 114145 changed from open to temporarily closed
   
    20:04:36: Balanced after 3 trials
    20:04:36: Reservoir 1097 is closed
    20:04:36: Tank 113766 is emptying at 3.50 m
    20:04:36: Pipe 113907 changed from open to temporarily closed
   
    20:34:36: Balanced after 21 trials
    20:34:36: Reservoir 1097 is emptying
    20:34:36: Reservoir 111111 is emptying
    20:34:36: Tank 113766 is filling at 3.45 m
    20:34:36: Tank 113952 is filling at 3.49 m
    20:34:36: Pipe 113907 changed from temporarily closed to open
    20:34:36: Pipe 114145 changed from temporarily closed to open
   
    20:37:09: Balanced after 3 trials
    20:37:09: Reservoir 111111 is closed
    20:37:09: Tank 113952 is emptying at 3.50 m
    20:37:09: Pipe 114145 changed from open to temporarily closed
   
    20:42:02: Balanced after 21 trials
    20:42:02: Reservoir 1097 is closed
    20:42:02: Reservoir 111111 is emptying
    20:42:02: Tank 113766 is emptying at 3.50 m
    20:42:02: Tank 113952 is filling at 3.50 m
    20:42:02: Pipe 113907 changed from open to temporarily closed
    20:42:02: Pipe 114145 changed from temporarily closed to open
   
    20:42:27: Balanced after 19 trials
    20:42:27: Reservoir 1097 is emptying
    20:42:27: Reservoir 111111 is closed
    20:42:27: Tank 113766 is filling at 3.50 m
    20:42:27: Tank 113952 is emptying at 3.50 m
    20:42:27: Pipe 113907 changed from temporarily closed to open
    20:42:27: Pipe 114145 changed from open to temporarily closed
   
    20:42:33: Balanced after 3 trials
    20:42:33: Reservoir 1097 is closed
    20:42:33: Tank 113766 is emptying at 3.50 m
    20:42:33: Pipe 113907 changed from open to temporarily closed
   
    21:00:00: Balanced after 21 trials
    21:00:00: Reservoir 1097 is emptying
    21:00:00: Reservoir 111111 is emptying
    21:00:00: Tank 113766 is filling at 3.47 m
    21:00:00: Tank 113952 is filling at 3.49 m
    21:00:00: Pipe 113907 changed from temporarily closed to open
    21:00:00: Pipe 114145 changed from temporarily closed to open
   
    21:01:29: Balanced after 3 trials
    21:01:29: Reservoir 111111 is closed
    21:01:29: Tank 113952 is emptying at 3.50 m
    21:01:29: Pipe 114145 changed from open to temporarily closed
   
    21:04:19: Balanced after 21 trials
    21:04:19: Reservoir 1097 is closed
    21:04:19: Reservoir 111111 is emptying
    21:04:19: Tank 113766 is emptying at 3.50 m
    21:04:19: Tank 113952 is filling at 3.50 m
    21:04:19: Pipe 113907 changed from open to temporarily closed
    21:04:19: Pipe 114145 changed from temporarily closed to open
   
    21:04:33: Balanced after 19 trials
    21:04:33: Reservoir 1097 is emptying
    21:04:33: Reservoir 111111 is closed
    21:04:33: Tank 113766 is filling at 3.50 m
    21:04:33: Tank 113952 is emptying at 3.50 m
    21:04:33: Pipe 113907 changed from temporarily closed to open
    21:04:33: Pipe 114145 changed from open to temporarily closed
   
    21:04:36: Balanced after 3 trials
    21:04:36: Reservoir 1097 is closed
    21:04:36: Tank 113766 is emptying at 3.50 m
    21:04:36: Pipe 113907 changed from open to temporarily closed
   
    21:34:36: Balanced after 21 trials
    21:34:36: Reservoir 1097 is emptying
    21:34:36: Reservoir 111111 is emptying
    21:34:36: Tank 113766 is filling at 3.45 m
    21:34:36: Tank 113952 is filling at 3.49 m
    21:34:36: Pipe 113907 changed from temporarily closed to open
    21:34:36: Pipe 114145 changed from temporarily closed to open
   
    21:37:09: Balanced after 3 trials
    21:37:09: Reservoir 111111 is closed
    21:37:09: Tank 113952 is emptying at 3.50 m
    21:37:09: Pipe 114145 changed from open to temporarily closed
   
    21:42:02: Balanced after 21 trials
    21:42:02: Reservoir 1097 is closed
    21:42:02: Reservoir 111111 is emptying
    21:42:02: Tank 113766 is emptying at 3.50 m
    21:42:02: Tank 113952 is filling at 3.50 m
    21:42:02: Pipe 113907 changed from open to temporarily closed
    21:42:02: Pipe 114145 changed from temporarily closed to open
   
    21:42:27: Balanced after 19 trials
    21:42:27: Reservoir 1097 is emptying
    21:42:27: Reservoir 111111 is closed
    21:42:27: Tank 113766 is filling at 3.50 m
    21:42:27: Tank 113952 is emptying at 3.50 m
    21:42:27: Pipe 113907 changed from temporarily closed to open
    21:42:27: Pipe 114145 changed from open to temporarily closed
   
    21:42:33: Balanced after 3 trials
    21:42:33: Reservoir 1097 is closed
    21:42:33: Tank 113766 is emptying at 3.50 m
    21:42:33: Pipe 113907 changed from open to temporarily closed
   
    22:00:00: Balanced after 21 trials
    22:00:00: Reservoir 1097 is emptying
    22:00:00: Reservoir 111111 is emptying
    22:00:00: Tank 113766 is filling at 3.47 m
    22:00:00: Tank 113952 is filling at 3.49 m
    22:00:00: Pipe 113907 changed from temporarily closed to open
    22:00:00: Pipe 114145 changed from temporarily closed to open
   
    22:01:29: Balanced after 3 trials
    22:01:29: Reservoir 111111 is closed
    22:01:29: Tank 113952 is emptying at 3.50 m
    22:01:29: Pipe 114145 changed from open to temporarily closed
   
    22:04:19: Balanced after 21 trials
    22:04:19: Reservoir 1097 is closed
    22:04:19: Reservoir 111111 is emptying
    22:04:19: Tank 113766 is emptying at 3.50 m
    22:04:19: Tank 113952 is filling at 3.50 m
    22:04:19: Pipe 113907 changed from open to temporarily closed
    22:04:19: Pipe 114145 changed from temporarily closed to open
   
    22:04:33: Balanced after 19 trials
    22:04:33: Reservoir 1097 is emptying
    22:04:33: Reservoir 111111 is closed
    22:04:33: Tank 113766 is filling at 3.50 m
    22:04:33: Tank 113952 is emptying at 3.50 m
    22:04:33: Pipe 113907 changed from temporarily closed to open
    22:04:33: Pipe 114145 changed from open to temporarily closed
   
    22:04:36: Balanced after 3 trials
    22:04:36: Reservoir 1097 is closed
    22:04:36: Tank 113766 is emptying at 3.50 m
    22:04:36: Pipe 113907 changed from open to temporarily closed
   
    22:34:36: Balanced after 21 trials
    22:34:36: Reservoir 1097 is emptying
    22:34:36: Reservoir 111111 is emptying
    22:34:36: Tank 113766 is filling at 3.45 m
    22:34:36: Tank 113952 is filling at 3.49 m
    22:34:36: Pipe 113907 changed from temporarily closed to open
    22:34:36: Pipe 114145 changed from temporarily closed to open
   
    22:37:09: Balanced after 3 trials
    22:37:09: Reservoir 111111 is closed
    22:37:09: Tank 113952 is emptying at 3.50 m
    22:37:09: Pipe 114145 changed from open to temporarily closed
   
    22:42:02: Balanced after 21 trials
    22:42:02: Reservoir 1097 is closed
    22:42:02: Reservoir 111111 is emptying
    22:42:02: Tank 113766 is emptying at 3.50 m
    22:42:02: Tank 113952 is filling at 3.50 m
    22:42:02: Pipe 113907 changed from open to temporarily closed
    22:42:02: Pipe 114145 changed from temporarily closed to open
   
    22:42:27: Balanced after 19 trials
    22:42:27: Reservoir 1097 is emptying
    22:42:27: Reservoir 111111 is closed
    22:42:27: Tank 113766 is filling at 3.50 m
    22:42:27: Tank 113952 is emptying at 3.50 m
    22:42:27: Pipe 113907 changed from temporarily closed to open
    22:42:27: Pipe 114145 changed from open to temporarily closed
   
    22:42:33: Balanced after 3 trials
    22:42:33: Reservoir 1097 is closed
    22:42:33: Tank 113766 is emptying at 3.50 m
    22:42:33: Pipe 113907 changed from open to temporarily closed
   
    23:00:00: Balanced after 21 trials
    23:00:00: Reservoir 1097 is emptying
    23:00:00: Reservoir 111111 is emptying
    23:00:00: Tank 113766 is filling at 3.47 m
    23:00:00: Tank 113952 is filling at 3.49 m
    23:00:00: Pipe 113907 changed from temporarily closed to open
    23:00:00: Pipe 114145 changed from temporarily closed to open
   
    23:01:29: Balanced after 3 trials
    23:01:29: Reservoir 111111 is closed
    23:01:29: Tank 113952 is emptying at 3.50 m
    23:01:29: Pipe 114145 changed from open to temporarily closed
   
    23:04:19: Balanced after 21 trials
    23:04:19: Reservoir 1097 is closed
    23:04:19: Reservoir 111111 is emptying
    23:04:19: Tank 113766 is emptying at 3.50 m
    23:04:19: Tank 113952 is filling at 3.50 m
    23:04:19: Pipe 113907 changed from open to temporarily closed
    23:04:19: Pipe 114145 changed from temporarily closed to open
   
    23:04:33: Balanced after 19 trials
    23:04:33: Reservoir 1097 is emptying
    23:04:33: Reservoir 111111 is closed
    23:04:33: Tank 113766 is filling at 3.50 m
    23:04:33: Tank 113952 is emptying at 3.50 m
    23:04:33: Pipe 113907 changed from temporarily closed to open
    23:04:33: Pipe 114145 changed from open to temporarily closed
   
    23:04:36: Balanced after 3 trials
    23:04:36: Reservoir 1097 is closed
    23:04:36: Tank 113766 is emptying at 3.50 m
    23:04:36: Pipe 113907 changed from open to temporarily closed
   
    23:34:36: Balanced after 21 trials
    23:34:36: Reservoir 1097 is emptying
    23:34:36: Reservoir 111111 is emptying
    23:34:36: Tank 113766 is filling at 3.45 m
    23:34:36: Tank 113952 is filling at 3.49 m
    23:34:36: Pipe 113907 changed from temporarily closed to open
    23:34:36: Pipe 114145 changed from temporarily closed to open
   
    23:37:09: Balanced after 3 trials
    23:37:09: Reservoir 111111 is closed
    23:37:09: Tank 113952 is emptying at 3.50 m
    23:37:09: Pipe 114145 changed from open to temporarily closed
   
    23:42:02: Balanced after 21 trials
    23:42:02: Reservoir 1097 is closed
    23:42:02: Reservoir 111111 is emptying
    23:42:02: Tank 113766 is emptying at 3.50 m
    23:42:02: Tank 113952 is filling at 3.50 m
    23:42:02: Pipe 113907 changed from open to temporarily closed
    23:42:02: Pipe 114145 changed from temporarily closed to open
   
    23:42:27: Balanced after 19 trials
    23:42:27: Reservoir 1097 is emptying
    23:42:27: Reservoir 111111 is closed
    23:42:27: Tank 113766 is filling at 3.50 m
    23:42:27: Tank 113952 is emptying at 3.50 m
    23:42:27: Pipe 113907 changed from temporarily closed to open
    23:42:27: Pipe 114145 changed from open to temporarily closed
   
    23:42:33: Balanced after 3 trials
    23:42:33: Reservoir 1097 is closed
    23:42:33: Tank 113766 is emptying at 3.50 m
    23:42:33: Pipe 113907 changed from open to temporarily closed
   
    24:00:00: Balanced after 21 trials
    24:00:00: Reservoir 1097 is emptying
    24:00:00: Reservoir 111111 is emptying
    24:00:00: Tank 113766 is filling at 3.47 m
    24:00:00: Tank 113952 is filling at 3.49 m
    24:00:00: Pipe 113907 changed from temporarily closed to open
    24:00:00: Pipe 114145 changed from temporarily closed to open
   
   
   
  Energy Usage:
  ----------------------------------------------------------------
             Usage   Avg.     Kw-hr      Avg.      Peak      Cost
  Pump      Factor Effic.       /m3        Kw        Kw      /day
  ----------------------------------------------------------------
  1105_n2a1    0.00   0.00      0.00      0.00      0.00      0.00
  113951_n2a  100.00  75.00      0.35      3.21      6.10      0.00
  1105_n2a  100.00  75.00      0.17      1.56      4.20      0.00
  ----------------------------------------------------------------
                                         Demand Charge:      0.00
                                         Total Cost:         0.00
   
   
  Node Results at 0:00:00 hrs:
  --------------------------------------------------------
                  Elevation    Demand      Head  Pressure
  Node                    m       L/s         m         m
  --------------------------------------------------------
  1001                32.59      0.03     69.20     36.62
  1002                25.24      0.01     69.21     43.97
  1003                29.89      0.14     69.20     39.32
  1004                35.07      0.05     69.21     34.14
  1005                42.92      0.03     69.24     26.32
  1006                53.61      0.00     69.23     15.62
  1008                53.07      0.01     69.21     16.14
  1009                45.00      0.00     69.21     24.21
  1010                51.92      0.04     69.20     17.28
  1011                57.09      0.07     69.20     12.11
  1012                47.57      0.00     69.20     21.63
  1013                37.87      0.02     69.20     31.33
  1014                22.38      0.03     69.21     46.83
  1015                23.20      0.02     69.21     46.01
  1016                25.00      0.05     69.21     44.21
  1017                30.00      0.08     69.20     39.20
  1018                33.08      0.10     69.20     36.12
  1019                34.39      0.01     69.20     34.81
  1020                38.71      0.04     69.20     30.49
  1021                37.65      0.04     69.20     31.55
  1022                37.93      0.02     69.20     31.27
  1023                43.66      0.14     69.20     25.54
  1024                52.38      0.09     69.20     16.82
  1025                55.38      0.03     69.20     13.82
  1026                56.55      0.06     69.20     12.65
  1027                54.99      0.02     69.20     14.22
  1028                54.09      0.01     69.21     15.12
  1029                54.72      0.09     69.21     14.49
  1030                54.89      0.02     69.20     14.31
  1031                54.28      0.04     69.20     14.92
  1032                51.21      0.01     69.21     18.00
  1033                50.31      0.03     69.19     18.88
  1034                58.29      0.10     69.22     10.93
  1035                53.92      0.07     69.22     15.30
  1036                55.10      0.00     69.23     14.13
  1037                50.84      0.06     69.21     18.37
  1038                47.40      0.04     69.21     21.82
  1039                45.00      0.07     69.21     24.21
  1040                40.00      0.08     69.21     29.21
  1041                53.49      0.06     69.19     15.70
  1042                52.49      0.03     69.19     16.69
  1043                49.83      0.04     69.19     19.35
  1044                45.86      0.07     69.20     23.34
  1045                44.60      0.05     69.20     24.60
  1046                44.14      0.03     69.20     25.06
  1047                48.32      0.03     69.20     20.89
  1048                44.23      0.10     69.20     24.96
  1049                39.77      0.07     69.20     29.44
  1050                38.59      0.09     69.20     30.62
  1051                35.20      0.17     69.20     34.00
  1052                27.22      0.09     69.21     42.00
  1053                30.13      0.03     69.21     39.07
  1054                28.36      0.00     69.21     40.84
  1055                26.54      0.02     69.21     42.67
  1056                31.69      0.02     69.22     37.53
  1057                32.25      0.02     69.22     36.97
  1058                37.44      0.03     69.23     31.79
  1059                39.44      0.03     69.23     29.79
  1060                47.71      0.04     69.23     21.52
  1061                50.00      0.01     69.23     19.23
  1062                50.00      0.03     69.22     19.22
  1063                60.00      0.01     69.23      9.23
  1064                60.00      0.01     69.23      9.23
  1065                57.92      0.00     69.23     11.31
  1066                57.26      0.00     69.23     11.97
  1067                35.03      0.05     69.20     34.18
  1068                38.54      0.05     69.21     30.67
  1069                38.69      0.05     69.21     30.52
  1070                39.87      0.01     69.20     29.33
  1071                39.81      0.03     69.20     29.39
  1072                53.65      0.07     69.20     15.55
  1073                20.02      0.00     52.33     32.32
  1074                38.76      0.03     69.21     30.45
  1075                39.02      0.02     69.21     30.19
  10761               45.00      0.07     69.20     24.20
  1077                39.82      0.04     69.20     29.38
  1079                37.40      0.00     69.23     31.83
  1080                42.95      0.00     69.24     26.29
  1081                67.50      0.00     69.25      1.75
  1082                49.88      0.00     69.22     19.34
  1083_n2a_1          22.34      0.00     52.33     30.00
  1083_n2a_2          22.34      0.00     69.21     46.88
  1084                38.60      0.00     69.20     30.60
  1086                37.95      0.00     69.20     31.26
  1087                37.93      0.00     69.20     31.27
  1088                42.94      0.00     69.24     26.30
  1089                42.91      0.00     69.24     26.32
  1090                54.99      0.00     69.20     14.21
  1091                54.98      0.00     69.20     14.23
  1092                23.21      0.00     69.21     46.00
  1093                37.65      0.00     69.20     31.56
  1094                37.66      0.00     69.20     31.55
  1095                31.69      0.00     69.22     37.53
  1096                31.68      0.00     69.22     37.53
  1103                38.42      0.00     69.20     30.78
  1105_n2a_1          53.85      0.00     69.97     16.12
  1105_n2a_2          53.85      0.00     53.42     -0.43
  1106                20.30      0.08     52.33     32.03
  1107_n2a_1          69.15      0.00     69.25      0.10
  1107_n2a_2          69.15      0.00     75.00      5.85
  1108                39.40      0.00     69.23     29.83
  1109                38.76      0.00     69.21     30.45
  1110                39.05      0.00     69.21     30.16
  1111                39.03      0.00     69.21     30.18
  1112                39.79      0.00     69.20     29.41
  1113                39.81      0.00     69.20     29.39
  1114                60.02      0.00     69.23      9.21
  1115                45.85      0.00     69.19     23.34
  113852              42.50      0.00     69.21     26.71
  113873              68.25      0.00     69.25      1.00
  113880              68.25      0.00     69.33      1.08
  113883              68.25      0.00     69.25      1.00
  113908              47.00      0.00     69.24     22.24
  113951_n2a_1        19.69      0.00     82.53     62.84
  113951_n2a_2        19.69      0.00     19.68     -0.01
  113954              51.50      0.00     82.51     31.01
  113955              51.50      0.00     82.50     31.00
  113956              48.00      0.00     82.50     34.50
  113957              44.20      0.00     82.50     38.30
  113958              41.65      0.00     82.50     40.85
  113959              43.64      0.00     82.50     38.86
  113960              35.97      0.00     82.50     46.53
  113961              33.21      0.00     82.50     49.29
  113962              44.77      0.00     82.50     37.73
  113963              44.71      0.00     82.50     37.79
  113964              42.77      0.00     82.50     39.73
  113965              42.00      0.03     82.50     40.50
  113966              38.70      0.02     82.50     43.80
  113967              38.77      0.00     82.50     43.73
  113968              37.82      0.00     82.50     44.68
  113969              37.29      0.00     82.50     45.21
  113970              36.97      0.00     82.50     45.53
  113971              37.06      0.00     82.50     45.44
  113972              38.14      0.01     82.50     44.36
  113973              36.27      0.00     82.50     46.23
  113974              34.00      0.04     82.50     48.50
  113975              33.28      0.00     82.50     49.22
  113976              37.84      0.00     82.50     44.66
  113977              37.31      0.00     82.50     45.19
  113978              39.99      0.00     82.50     42.51
  113979              40.25      0.00     82.50     42.25
  113980              40.75      0.00     82.50     41.75
  113981              42.21      0.00     82.50     40.29
  113982              42.68      0.00     82.50     39.82
  113983              42.66      0.00     82.50     39.84
  113984              42.47      0.00     82.50     40.03
  113985              38.12      0.00     82.50     44.38
  113986              37.16      0.01     82.50     45.34
  113987              40.03      0.00     82.50     42.47
  113988              44.21      0.00     82.50     38.29
  113989              44.23      0.00     82.50     38.27
  113990              37.90      0.02     82.50     44.60
  113991              42.47      0.00     82.50     40.03
  113992              39.90      0.00     82.50     42.60
  113993              36.66      0.00     82.50     45.84
  113994              36.53      0.00     82.50     45.97
  113995              34.62      0.02     82.50     47.88
  113996              30.74      0.02     82.50     51.76
  113997              36.81      0.00     82.50     45.69
  113998              37.10      0.00     82.50     45.40
  113999              40.10      0.00     82.50     42.40
  114000              37.61      0.05     82.50     44.89
  114001              37.26      0.00     82.50     45.24
  114002              34.78      0.04     82.50     47.72
  114003              34.65      0.02     82.50     47.85
  114004              37.04      0.00     82.50     45.46
  114005              31.84      0.01     82.50     50.66
  114006              32.34      0.01     82.50     50.16
  114007              32.24      0.01     82.50     50.26
  114008              30.96      0.01     82.50     51.54
  114009              29.70      0.00     82.50     52.80
  114010              33.78      0.00     82.50     48.72
  114011              33.07      0.00     82.50     49.43
  114012              30.66      0.00     82.50     51.84
  114013              30.24      0.01     82.50     52.26
  114014              29.75      0.01     82.50     52.75
  114015              37.40      0.00     82.50     45.10
  114016              37.07      0.01     82.50     45.43
  114017              36.83      0.00     82.50     45.67
  114018              45.20      0.00     82.50     37.30
  114044              37.75      0.00     82.50     44.75
  114102              37.98      0.00     82.50     44.52
  114107              42.69      0.00     82.50     39.81
  114108              40.13      0.00     82.50     42.37
  114109              42.56      0.00     82.50     39.94
  114110              39.92      0.00     82.50     42.58
  114123              42.28      0.00     82.50     40.22
  114128              39.42      0.00     82.50     43.08
  114132              39.74      0.00     82.50     42.76
  114133              43.40      0.05     82.50     39.10
  114139              37.85      0.00     82.50     44.65
  114147              44.80      0.00     82.50     37.70
  114148              44.47      0.00     82.50     38.03
  114149              44.15      0.00     82.50     38.35
  114150              42.69      0.00     82.50     39.81
  114151              41.99      0.00     82.50     40.51
  114152              36.94      0.00     82.50     45.56
  114153              36.32      0.00     82.50     46.18
  114154              37.04      0.00     82.50     45.46
  114155              39.94      0.00     82.50     42.56
  114156              39.24      0.00     82.50     43.26
  114157              42.52      0.00     82.50     39.98
  114158              40.26      0.00     82.50     42.24
  114183              42.64      0.00     82.50     39.86
  114184              44.54      0.00     82.50     37.96
  114185              37.85      0.00     82.50     44.65
  114186              37.15      0.00     82.50     45.35
  114187              37.35      0.00     82.50     45.15
  114189              38.09      0.00     82.50     44.41
  114190              33.21      0.00     82.50     49.29
  114191              30.16      0.00     82.50     52.34
  114192              32.14      0.00     82.50     50.36
  114193              36.81      0.00     82.50     45.69
  114214              37.67      0.00     82.50     44.83
  114220              39.98      0.00     82.50     42.52
  114223              32.08      0.02     82.50     50.42
  114227              31.04      0.00     82.50     51.46
  114230              33.58      0.00     82.50     48.92
  114233              41.02      0.00     82.50     41.48
  114236              41.16      0.03     82.50     41.34
  114239              34.00      0.00     82.50     48.50
  114242              35.01      0.01     82.50     47.49
  114245              31.10      0.01     82.50     51.40
  114248              37.50      0.07     82.50     45.00
  114251              41.28      0.04     82.50     41.22
  114254              41.65      0.00     82.50     40.85
  128                 54.00      0.00     69.22     15.22
  131                 50.54      0.00     69.22     18.68
  134                 31.25      0.00     69.20     37.95
  138                 32.00      0.06     69.22     37.22
  41                  39.45      0.00     69.22     29.77
  42                  23.35      0.00     69.21     45.86
  1101                75.00     -0.00     75.00     -0.00  Reservoir
  1097                53.85    -17.34     53.85      0.00  Reservoir
  111111              19.69     -7.27     19.69      0.00  Reservoir
  113766              68.25     13.98     69.25      1.00  Tank
  113952              81.50      6.71     82.50      1.00  Tank
   
   
  Link Results at 0:00:00 hrs:
  ------------------------------------------------------------------------------------------------
                     Length  Diameter      Flow  Velocity  Headloss   Setting  Reaction  F-Factor
  Link                    m        mm       L/s       m/s    /1000m                              
  ------------------------------------------------------------------------------------------------
  113854              39.75     99.00      0.18      0.02      0.01      0.00      0.00    0.0294
  113857              94.18     99.00      0.18      0.02      0.01      0.00      0.00    0.0294
  113875              11.37    204.00      3.36      0.10      0.07      0.00      0.00    0.0256
  113881              15.55     99.00     17.34      2.25     40.64      0.00      0.00    0.0156
  113884              21.29    144.00      0.00      0.00      0.00      0.00      0.00    0.0000
  113905               1.40    144.00      0.00      0.00      0.00      0.00      0.00    0.0000
  113906               2.63    204.00      3.36      0.10      0.07      0.00      0.00    0.0262
  113907               2.09     99.00     17.34      2.25     40.64      0.00      0.00    0.0156
  113909             105.83    204.00      3.36      0.10      0.07      0.00      0.00    0.0257
  113910              52.86    204.00      3.36      0.10      0.07      0.00      0.00    0.0257
  113921              99.47    144.00      0.72      0.04      0.02      0.00      0.00    0.0355
  113922              26.43    144.00      0.72      0.04      0.02      0.00      0.00    0.0356
  113935              29.00     99.00     -0.75      0.10      0.16      0.00      0.00    0.0315
  113936              71.06     99.00     -0.75      0.10      0.16      0.00      0.00    0.0315
  114025              12.00    153.00      7.27      0.40      1.05      0.00      0.00    0.0201
  114026              19.75    153.00      7.27      0.40      1.05      0.00      0.00    0.0201
  114027              13.72    153.00      0.56      0.03      0.01      0.00      0.00    0.0396
  114028               8.46     99.00      0.21      0.03      0.01      0.00      0.00    0.0289
  114030              19.36    153.00      0.56      0.03      0.01      0.00      0.00    0.0390
  114032              43.21     56.70      0.03      0.01      0.01      0.00      0.00    0.0957
  114034              11.21     99.00      0.10      0.01      0.00      0.00      0.00    0.0524
  114045              57.72    144.00      0.29      0.02      0.00      0.00      0.00    0.0292
  114046              16.98     99.00      0.18      0.02      0.01      0.00      0.00    0.0297
  114050              32.34     99.00     -0.06      0.01      0.00      0.00      0.00    0.0917
  114051              10.92     99.00      0.06      0.01      0.00      0.00      0.00    0.0938
  114052              58.48     82.00      0.01      0.00      0.00      0.00      0.00    0.6945
  114053              64.43     82.00      0.01      0.00      0.00      0.00      0.00    0.5043
  114054              52.12     56.70      0.00      0.00      0.00      0.00      0.00    0.6813
  114056              53.22     82.00      0.03      0.00      0.00      0.00      0.00    0.1493
  114057             101.18     82.00      0.01      0.00      0.00      0.00      0.00    0.4385
  114059              14.18     99.00      0.02      0.00      0.00      0.00      0.00    0.1881
  114061              95.23     56.70     -0.02      0.01      0.01      0.00      0.00    0.1270
  114064              22.91     99.00     -0.05      0.01      0.00      0.00      0.00    0.1010
  114065              34.81     99.00     -0.05      0.01      0.00      0.00      0.00    0.0998
  114066              21.63     99.00     -0.05      0.01      0.00      0.00      0.00    0.0892
  114067              36.68     56.70     -0.03      0.01      0.01      0.00      0.00    0.0954
  114069              10.39     99.00      0.08      0.01      0.00      0.00      0.00    0.0576
  114071              42.04     99.00      0.05      0.01      0.00      0.00      0.00    0.1010
  114072              94.65     99.00     -0.05      0.01      0.00      0.00      0.00    0.1046
  114073              52.65     82.00      0.04      0.01      0.00      0.00      0.00    0.1007
  114076              82.83    144.00      0.14      0.01      0.00      0.00      0.00    0.0533
  114077              22.63    144.00      0.13      0.01      0.00      0.00      0.00    0.0516
  114079              85.47    144.00      0.10      0.01      0.00      0.00      0.00    0.0725
  114082              77.95    144.00      0.03      0.00      0.00      0.00      0.00    0.2070
  114083              42.64     82.00      0.02      0.00      0.00      0.00      0.00    0.2310
  114084              45.53     82.00      0.02      0.00      0.00      0.00      0.00    0.2524
  114085              81.81     82.00      0.01      0.00      0.00      0.00      0.00    0.3918
  114088              79.60     82.00      0.02      0.00      0.00      0.00      0.00    0.2734
  114091              15.67     99.00      0.00      0.00      0.00      0.00      0.00    0.0000
  114092              74.17     82.00      0.01      0.00      0.00      0.00      0.00    0.3033
  114093              31.34     99.00      0.02      0.00      0.00      0.00      0.00    0.2621
  114094              45.71     99.00      0.02      0.00      0.00      0.00      0.00    0.2396
  114095              78.60     82.00     -0.02      0.00      0.00      0.00      0.00    0.1996
  114098              48.12     82.00      0.00      0.00      0.00      0.00      0.00    0.4425
  114099              75.66     82.00      0.01      0.00      0.00      0.00      0.00    0.4222
  114101               4.71     99.00      0.09      0.01      0.00      0.00      0.00    0.0554
  114103              16.04     99.00     -0.06      0.01      0.00      0.00      0.00    0.0837
  114104               2.23     99.00      0.09      0.01      0.00      0.00      0.00    0.0585
  114106               8.55     99.00      0.09      0.01      0.00      0.00      0.00    0.0610
  114111               8.58     99.00      0.04      0.01      0.00      0.00      0.00    0.1312
  114112               8.15     99.00      0.07      0.01      0.00      0.00      0.00    0.0597
  114116              23.68     99.00      0.07      0.01      0.00      0.00      0.00    0.0695
  114117              91.32     99.00      0.00      0.00      0.00      0.00      0.00    0.0000
  114118              89.07     82.00      0.01      0.00      0.00      0.00      0.00    0.4056
  114119              10.82     99.00      0.01      0.00      0.00      0.00      0.00    0.0000
  114121              67.71     99.00      0.03      0.00      0.00      0.00      0.00    0.1424
  114126              77.61     82.00     -0.01      0.00      0.00      0.00      0.00    0.6931
  114127              14.49     99.00      0.04      0.00      0.00      0.00      0.00    0.1129
  114130              19.18     99.00     -0.04      0.00      0.00      0.00      0.00    0.1740
  114131              78.82     56.70     -0.00      0.00      0.00      0.00      0.00    2.7628
  114134              13.53     99.00      0.01      0.00      0.00      0.00      0.00    0.0000
  114136              92.24     82.00      0.01      0.00      0.00      0.00      0.00    0.3974
  114137              73.34     82.00      0.01      0.00      0.00      0.00      0.00    0.3963
  114138              71.39     56.70      0.05      0.02      0.02      0.00      0.00    0.0597
  114140              22.12     99.00      0.15      0.02      0.01      0.00      0.00    0.0336
  114141               2.35     99.00      0.15      0.02      0.01      0.00      0.00    0.0421
  114145              10.05    153.00      7.27      0.40      1.05      0.00      0.00    0.0201
  114146               9.59    153.00      0.56      0.03      0.01      0.00      0.00    0.0378
  114159              60.01    144.00      0.26      0.02      0.00      0.00      0.00    0.0282
  114160               3.11    144.00      0.26      0.02      0.00      0.00      0.00    0.0320
  114161              69.42     99.00      0.13      0.02      0.01      0.00      0.00    0.0396
  114162               3.62     99.00      0.13      0.02      0.01      0.00      0.00    0.0353
  114163               3.97     99.00      0.06      0.01      0.00      0.00      0.00    0.0822
  114164              72.21     99.00      0.06      0.01      0.00      0.00      0.00    0.0904
  114165               3.08     99.00     -0.06      0.01      0.00      0.00      0.00    0.0962
  114166              28.77     99.00     -0.06      0.01      0.00      0.00      0.00    0.0824
  114167               3.15     99.00      0.03      0.00      0.00      0.00      0.00    0.0000
  114168              80.40     99.00      0.03      0.00      0.00      0.00      0.00    0.1791
  114169              45.01     99.00      0.03      0.00      0.00      0.00      0.00    0.2187
  114170               3.97     99.00      0.03      0.00      0.00      0.00      0.00    0.0000
  114171              71.88     82.00     -0.01      0.00      0.00      0.00      0.00    0.9571
  114172               4.32     82.00     -0.01      0.00      0.00      0.00      0.00    0.0000
  114174               3.80     99.00      0.03      0.00      0.00      0.00      0.00    0.0000
  114175              69.70     99.00     -0.04      0.00      0.00      0.00      0.00    0.1334
  114176               3.65     99.00     -0.04      0.00      0.00      0.00      0.00    0.0000
  114177              21.80     56.70     -0.02      0.01      0.01      0.00      0.00    0.1271
  114178               3.41     56.70     -0.02      0.01      0.01      0.00      0.00    0.1478
  114179              79.15     82.00     -0.03      0.01      0.00      0.00      0.00    0.1217
  114180               3.00     82.00     -0.03      0.01      0.00      0.00      0.00    0.1147
  114181               3.27     99.00      0.00      0.00      0.00      0.00      0.00    0.0000
  114182               9.25     99.00      0.00      0.00      0.00      0.00      0.00    0.0000
  114194               4.38     99.00      0.03      0.00      0.00      0.00      0.00    0.0000
  114195              47.12     99.00      0.03      0.00      0.00      0.00      0.00    0.1826
  114196              14.13    144.00      0.09      0.01      0.00      0.00      0.00    0.0603
  114197               3.73    144.00      0.09      0.01      0.00      0.00      0.00    0.2285
  114201               3.28     99.00      0.02      0.00      0.00      0.00      0.00    0.0000
  114202               8.21     99.00     -0.02      0.00      0.00      0.00      0.00    0.0000
  114203               3.20     99.00     -0.02      0.00      0.00      0.00      0.00    0.6270
  114204              87.62     99.00      0.06      0.01      0.00      0.00      0.00    0.0794
  114205               3.78     99.00      0.06      0.01      0.00      0.00      0.00    0.0682
  114206              63.89     99.00     -0.01      0.00      0.00      0.00      0.00    0.6109
  114207               2.59     99.00     -0.01      0.00      0.00      0.00      0.00    0.0000
  114208               3.83     99.00      0.06      0.01      0.00      0.00      0.00    0.0920
  114209              88.58     99.00      0.06      0.01      0.00      0.00      0.00    0.0915
  114210               2.85    144.00      0.14      0.01      0.00      0.00      0.00    0.0000
  114212               4.83     99.00      0.05      0.01      0.00      0.00      0.00    0.0747
  114213              12.43     99.00      0.05      0.01      0.00      0.00      0.00    0.0870
  114215               3.68     99.00     -0.02      0.00      0.00      0.00      0.00    0.0000
  114216               6.95     99.00     -0.02      0.00      0.00      0.00      0.00    0.0000
  114217              10.71     99.00     -0.07      0.01      0.00      0.00      0.00    0.0753
  114218               4.55     99.00     -0.07      0.01      0.00      0.00      0.00    0.0887
  114219              82.18     99.00      0.02      0.00      0.00      0.00      0.00    0.2333
  114221              87.98     99.00      0.00      0.00      0.00      0.00      0.00    3.5489
  114222               4.03     99.00      0.00      0.00      0.00      0.00      0.00    0.0000
  114224              77.99     99.00      0.02      0.00      0.00      0.00      0.00    0.2736
  114229              17.71     99.00      0.05      0.01      0.00      0.00      0.00    0.0989
  114231              45.06     82.00      0.00      0.00      0.00      0.00      0.00    0.9450
  114232              37.93     82.00      0.00      0.00      0.00      0.00      0.00    0.5613
  114234              64.56     99.00      0.04      0.01      0.00      0.00      0.00    0.1141
  114235              27.52     99.00      0.04      0.01      0.00      0.00      0.00    0.1339
  114237              62.50     56.70      0.03      0.01      0.01      0.00      0.00    0.0937
  114238             171.25     99.00     -0.01      0.00      0.00      0.00      0.00    1.0110
  114240              34.75    144.00      0.14      0.01      0.00      0.00      0.00    0.0498
  114241              76.85    144.00      0.14      0.01      0.00      0.00      0.00    0.0550
  114243              48.48     99.00      0.03      0.00      0.00      0.00      0.00    0.1521
  114244              29.30     99.00      0.02      0.00      0.00      0.00      0.00    0.2656
  114246              38.68     99.00      0.06      0.01      0.00      0.00      0.00    0.0883
  114247              36.79     99.00      0.05      0.01      0.00      0.00      0.00    0.1072
  114249              45.59     99.00      0.08      0.01      0.00      0.00      0.00    0.0623
  114250              42.24     99.00      0.02      0.00      0.00      0.00      0.00    0.2975
  114252              44.04     99.00      0.07      0.01      0.00      0.00      0.00    0.0773
  114253              39.63     99.00      0.03      0.00      0.00      0.00      0.00    0.2010
  114255               6.50    153.00      0.56      0.03      0.01      0.00      0.00    0.0371
  114256               5.07    153.00      0.56      0.03      0.01      0.00      0.00    0.0417
  114460             151.46     99.00     -0.51      0.07      0.08      0.00      0.00    0.0351
  129                 12.27     56.70     -0.14      0.06      0.10      0.00      0.00    0.0353
  130                 97.70     56.70     -0.14      0.06      0.10      0.00      0.00    0.0353
  132                 77.99     56.70     -0.01      0.00      0.00      0.00      0.00    0.3059
  133                 22.64     56.70     -0.01      0.00      0.00      0.00      0.00    0.3080
  135                 81.64     56.70     -0.04      0.02      0.02      0.00      0.00    0.0739
  136                 35.77     56.70     -0.04      0.02      0.02      0.00      0.00    0.0742
  139                 58.30     99.00     -0.44      0.06      0.06      0.00      0.00    0.0367
  140                 17.81     99.00     -0.50      0.06      0.08      0.00      0.00    0.0355
  2001                21.17    153.00     -0.41      0.02      0.01      0.00      0.00    0.0369
  2002                73.77     99.00      0.30      0.04      0.03      0.00      0.00    0.0407
  2003               136.22     99.00      0.25      0.03      0.02      0.00      0.00    0.0355
  2004               123.09     99.00      0.17      0.02      0.01      0.00      0.00    0.0299
  2005                65.30     99.00      0.07      0.01      0.00      0.00      0.00    0.0695
  2006               106.90     56.70     -0.03      0.01      0.01      0.00      0.00    0.1036
  2007                17.38     99.00      0.08      0.01      0.00      0.00      0.00    0.0676
  2008               131.99     99.00      0.24      0.03      0.02      0.00      0.00    0.0336
  2009                77.76     56.70      0.10      0.04      0.04      0.00      0.00    0.0299
  2010                72.84     99.00      0.00      0.00      0.00      0.00      0.00    1.7743
  2011                87.57     99.00      0.00      0.00      0.00      0.00      0.00    1.4758
  2012                73.84     56.70      0.07      0.03      0.03      0.00      0.00    0.0445
  2013                56.21     99.00     -0.16      0.02      0.01      0.00      0.00    0.0329
  2014                47.25     99.00     -0.19      0.02      0.01      0.00      0.00    0.0289
  2015               119.36     99.00     -0.25      0.03      0.02      0.00      0.00    0.0354
  2016                49.03     99.00      0.06      0.01      0.00      0.00      0.00    0.0803
  2017                63.61     99.00      0.04      0.01      0.00      0.00      0.00    0.1158
  2018                62.43     99.00      0.01      0.00      0.00      0.00      0.00    0.7847
  2019                74.18     99.00     -0.04      0.00      0.00      0.00      0.00    0.1471
  2020                68.74     99.00     -0.07      0.01      0.00      0.00      0.00    0.0737
  2021                68.47     99.00     -0.10      0.01      0.00      0.00      0.00    0.0522
  2022                30.37     99.00      0.11      0.01      0.00      0.00      0.00    0.0472
  2023                75.94     99.00      0.07      0.01      0.00      0.00      0.00    0.0726
  2024                68.93     99.00      0.00      0.00      0.00      0.00      0.00    1.8588
  2025                20.93     99.00     -0.22      0.03      0.01      0.00      0.00    0.0311
  2026               124.20     99.00     -0.08      0.01      0.00      0.00      0.00    0.0652
  2027                57.75     99.00     -0.30      0.04      0.03      0.00      0.00    0.0405
  2028                68.38     56.70      0.13      0.05      0.07      0.00      0.00    0.0308
  2030                63.24     56.70     -0.18      0.07      0.19      0.00      0.00    0.0406
  2031                71.04     99.00     -0.34      0.04      0.04      0.00      0.00    0.0396
  2032                70.22     99.00     -0.39      0.05      0.05      0.00      0.00    0.0380
  2034                16.94    144.00     -1.50      0.09      0.09      0.00      0.00    0.0289
  2035                96.31    144.00      0.99      0.06      0.04      0.00      0.00    0.0323
  2037                61.06     99.00      0.29      0.04      0.03      0.00      0.00    0.0396
  2038                39.83     99.00      0.27      0.04      0.02      0.00      0.00    0.0379
  2039                47.51     99.00      0.25      0.03      0.02      0.00      0.00    0.0350
  2040                48.76     99.00      0.25      0.03      0.02      0.00      0.00    0.0351
  2041                63.05     99.00      0.22      0.03      0.01      0.00      0.00    0.0311
  2042                66.40     99.00      0.19      0.03      0.01      0.00      0.00    0.0289
  2043                57.82     99.00     -0.18      0.02      0.01      0.00      0.00    0.0294
  2045                16.87     99.00     -0.37      0.05      0.05      0.00      0.00    0.0387
  2046                38.81     99.00     -0.55      0.07      0.09      0.00      0.00    0.0344
  2047                24.90     99.00     -0.40      0.05      0.05      0.00      0.00    0.0377
  2048               102.95     99.00     -0.50      0.06      0.08      0.00      0.00    0.0355
  2051                12.49     56.70      0.08      0.03      0.03      0.00      0.00    0.0361
  2052                46.89    144.00     -0.61      0.04      0.02      0.00      0.00    0.0372
  2053                18.59    153.00      0.00      0.00      0.00      0.00      0.00    0.0000
  2054                56.06    144.00     -0.61      0.04      0.02      0.00      0.00    0.0373
  2055                30.20    144.00     -0.76      0.05      0.03      0.00      0.00    0.0350
  2056                76.84     56.70     -0.08      0.03      0.03      0.00      0.00    0.0348
  2059                23.75     99.00     -0.16      0.02      0.01      0.00      0.00    0.0323
  2060                43.25     99.00     -0.17      0.02      0.01      0.00      0.00    0.0308
  2061               136.50     99.00     -0.18      0.02      0.01      0.00      0.00    0.0293
  2062                72.74     56.70      0.00      0.00      0.00      0.00      0.00    0.7503
  2063                86.15     56.70     -0.05      0.02      0.02      0.00      0.00    0.0561
  2064                14.75     56.70     -0.14      0.05      0.09      0.00      0.00    0.0329
  2065                71.33     56.70     -0.18      0.07      0.19      0.00      0.00    0.0407
  2066                65.82    153.00     -0.76      0.04      0.02      0.00      0.00    0.0356
  2067                46.86    153.00     -0.95      0.05      0.03      0.00      0.00    0.0333
  2068                 1.78    153.00     -0.99      0.05      0.03      0.00      0.00    0.0326
  2069                 1.92    153.00      2.34      0.13      0.14      0.00      0.00    0.0261
  2070                31.14    153.00      1.55      0.08      0.07      0.00      0.00    0.0291
[...]
  114118              89.07     82.00      0.01      0.00      0.00      0.00      0.00    0.5518
  114119              10.82     99.00      0.01      0.00      0.00      0.00      0.00    0.7263
  114121              67.71     99.00      0.03      0.00      0.00      0.00      0.00    0.1683
  114126              77.61     82.00     -0.01      0.00      0.00      0.00      0.00    0.8649
  114127              14.49     99.00      0.04      0.00      0.00      0.00      0.00    0.1687
  114130              19.18     99.00     -0.04      0.00      0.00      0.00      0.00    0.1310
  114131              78.82     56.70     -0.00      0.00      0.00      0.00      0.00    1.9262
  114134              13.53     99.00      0.01      0.00      0.00      0.00      0.00    0.7594
  114136              92.24     82.00      0.01      0.00      0.00      0.00      0.00    0.5623
  114137              73.34     82.00      0.01      0.00      0.00      0.00      0.00    0.5044
  114138              71.39     56.70      0.05      0.02      0.02      0.00      0.00    0.0593
  114140              22.12     99.00      0.15      0.02      0.01      0.00      0.00    0.0350
  114141               2.35     99.00      0.15      0.02      0.01      0.00      0.00    0.0412
  114145              10.05    153.00      7.14      0.39      1.01      0.00      0.00    0.0202
  114146               9.59    153.00      0.56      0.03      0.01      0.00      0.00    0.0409
  114159              60.01    144.00      0.26      0.02      0.00      0.00      0.00    0.0299
  114160               3.11    144.00      0.26      0.02      0.00      0.00      0.00    0.0321
  114161              69.42     99.00      0.13      0.02      0.01      0.00      0.00    0.0387
  114162               3.62     99.00      0.13      0.02      0.01      0.00      0.00    0.0531
  114163               3.97     99.00      0.06      0.01      0.00      0.00      0.00    0.0837
  114164              72.21     99.00      0.06      0.01      0.00      0.00      0.00    0.0874
  114165               3.08     99.00     -0.06      0.01      0.00      0.00      0.00    0.0950
  114166              28.77     99.00     -0.06      0.01      0.00      0.00      0.00    0.0814
  114167               3.15     99.00      0.03      0.00      0.00      0.00      0.00    0.3570
  114168              80.40     99.00      0.03      0.00      0.00      0.00      0.00    0.1539
  114169              45.01     99.00      0.03      0.00      0.00      0.00      0.00    0.2089
  114170               3.97     99.00      0.03      0.00      0.00      0.00      0.00    0.0000
  114171              71.88     82.00     -0.01      0.00      0.00      0.00      0.00    0.6241
  114172               4.32     82.00     -0.01      0.00      0.00      0.00      0.00    2.5960
  114174               3.80     99.00      0.03      0.00      0.00      0.00      0.00    0.4347
  114175              69.70     99.00     -0.04      0.00      0.00      0.00      0.00    0.1330
  114176               3.65     99.00     -0.04      0.00      0.00      0.00      0.00    0.2117
  114177              21.80     56.70     -0.02      0.01      0.01      0.00      0.00    0.1271
  114178               3.41     56.70     -0.02      0.01      0.01      0.00      0.00    0.1108
  114179              79.15     82.00     -0.03      0.01      0.00      0.00      0.00    0.1221
  114180               3.00     82.00     -0.03      0.01      0.00      0.00      0.00    0.1150
  114181               3.27     99.00      0.00      0.00      0.00      0.00      0.00    0.0000
  114182               9.25     99.00      0.00      0.00      0.00      0.00      0.00    0.0000
  114194               4.38     99.00      0.03      0.00      0.00      0.00      0.00    0.3192
  114195              47.12     99.00      0.03      0.00      0.00      0.00      0.00    0.1780
  114196              14.13    144.00      0.09      0.01      0.00      0.00      0.00    0.0625
  114197               3.73    144.00      0.09      0.01      0.00      0.00      0.00    0.0000
  114201               3.28     99.00      0.02      0.00      0.00      0.00      0.00    0.0000
  114202               8.21     99.00     -0.02      0.00      0.00      0.00      0.00    0.2813
  114203               3.20     99.00     -0.02      0.00      0.00      0.00      0.00    0.0000
  114204              87.62     99.00      0.06      0.01      0.00      0.00      0.00    0.0785
  114205               3.78     99.00      0.06      0.01      0.00      0.00      0.00    0.0700
  114206              63.89     99.00     -0.01      0.00      0.00      0.00      0.00    0.6031
  114207               2.59     99.00     -0.01      0.00      0.00      0.00      0.00    0.0000
  114208               3.83     99.00      0.06      0.01      0.00      0.00      0.00    0.0922
  114209              88.58     99.00      0.06      0.01      0.00      0.00      0.00    0.0917
  114210               2.85    144.00      0.14      0.01      0.00      0.00      0.00    0.1239
  114212               4.83     99.00      0.05      0.01      0.00      0.00      0.00    0.0792
  114213              12.43     99.00      0.05      0.01      0.00      0.00      0.00    0.0923
  114215               3.68     99.00     -0.02      0.00      0.00      0.00      0.00    0.0000
  114216               6.95     99.00     -0.02      0.00      0.00      0.00      0.00    0.4979
  114217              10.71     99.00     -0.08      0.01      0.00      0.00      0.00    0.0527
  114218               4.55     99.00     -0.08      0.01      0.00      0.00      0.00    0.0828
  114219              82.18     99.00      0.02      0.00      0.00      0.00      0.00    0.2907
  114221              87.98     99.00      0.00      0.00      0.00      0.00      0.00    1.9511
  114222               4.03     99.00      0.00      0.00      0.00      0.00      0.00    0.0000
  114224              77.99     99.00      0.02      0.00      0.00      0.00      0.00    0.2394
  114229              17.71     99.00      0.05      0.01      0.00      0.00      0.00    0.1005
  114231              45.06     82.00      0.00      0.00      0.00      0.00      0.00    0.9326
  114232              37.93     82.00      0.00      0.00      0.00      0.00      0.00    1.1079
  114234              64.56     99.00      0.04      0.01      0.00      0.00      0.00    0.1232
  114235              27.52     99.00      0.04      0.01      0.00      0.00      0.00    0.1112
  114237              62.50     56.70      0.03      0.01      0.01      0.00      0.00    0.0937
  114238             171.25     99.00     -0.01      0.00      0.00      0.00      0.00    0.5161
  114240              34.75    144.00      0.14      0.01      0.00      0.00      0.00    0.0508
  114241              76.85    144.00      0.14      0.01      0.00      0.00      0.00    0.0515
  114243              48.48     99.00      0.03      0.00      0.00      0.00      0.00    0.2019
  114244              29.30     99.00      0.02      0.00      0.00      0.00      0.00    0.2141
  114246              38.68     99.00      0.06      0.01      0.00      0.00      0.00    0.0895
  114247              36.79     99.00      0.05      0.01      0.00      0.00      0.00    0.1088
  114249              45.59     99.00      0.09      0.01      0.00      0.00      0.00    0.0578
  114250              42.24     99.00      0.02      0.00      0.00      0.00      0.00    0.2699
  114252              44.04     99.00      0.07      0.01      0.00      0.00      0.00    0.0728
  114253              39.63     99.00      0.03      0.00      0.00      0.00      0.00    0.2084
  114255               6.50    153.00      0.56      0.03      0.01      0.00      0.00    0.0418
  114256               5.07    153.00      0.56      0.03      0.01      0.00      0.00    0.0357
  114460             151.46     99.00     -0.51      0.07      0.08      0.00      0.00    0.0351
  129                 12.27     56.70     -0.14      0.06      0.10      0.00      0.00    0.0352
  130                 97.70     56.70     -0.14      0.06      0.10      0.00      0.00    0.0352
  132                 77.99     56.70     -0.01      0.00      0.00      0.00      0.00    0.3084
  133                 22.64     56.70     -0.01      0.00      0.00      0.00      0.00    0.3105
  135                 81.64     56.70     -0.04      0.02      0.02      0.00      0.00    0.0743
  136                 35.77     56.70     -0.04      0.02      0.02      0.00      0.00    0.0743
  139                 58.30     99.00     -0.44      0.06      0.06      0.00      0.00    0.0367
  140                 17.81     99.00     -0.50      0.06      0.08      0.00      0.00    0.0355
  2001                21.17    153.00     -0.41      0.02      0.01      0.00      0.00    0.0369
  2002                73.77     99.00      0.30      0.04      0.03      0.00      0.00    0.0407
  2003               136.22     99.00      0.25      0.03      0.02      0.00      0.00    0.0355
  2004               123.09     99.00      0.17      0.02      0.01      0.00      0.00    0.0299
  2005                65.30     99.00      0.07      0.01      0.00      0.00      0.00    0.0698
  2006               106.90     56.70     -0.03      0.01      0.01      0.00      0.00    0.1048
  2007                17.38     99.00      0.08      0.01      0.00      0.00      0.00    0.0664
  2008               131.99     99.00      0.24      0.03      0.02      0.00      0.00    0.0336
  2009                77.76     56.70      0.10      0.04      0.04      0.00      0.00    0.0299
  2010                72.84     99.00      0.00      0.00      0.00      0.00      0.00    1.1521
  2011                87.57     99.00      0.00      0.00      0.00      0.00      0.00    1.4375
  2012                73.84     56.70      0.07      0.03      0.03      0.00      0.00    0.0445
  2013                56.21     99.00     -0.16      0.02      0.01      0.00      0.00    0.0325
  2014                47.25     99.00     -0.19      0.02      0.01      0.00      0.00    0.0292
  2015               119.36     99.00     -0.25      0.03      0.02      0.00      0.00    0.0353
  2016                49.03     99.00      0.06      0.01      0.00      0.00      0.00    0.0809
  2017                63.61     99.00      0.04      0.01      0.00      0.00      0.00    0.1170
  2018                62.43     99.00      0.01      0.00      0.00      0.00      0.00    0.8354
  2019                74.18     99.00     -0.04      0.00      0.00      0.00      0.00    0.1452
  2020                68.74     99.00     -0.07      0.01      0.00      0.00      0.00    0.0732
  2021                68.47     99.00     -0.10      0.01      0.00      0.00      0.00    0.0520
  2022                30.37     99.00      0.11      0.01      0.00      0.00      0.00    0.0476
  2023                75.94     99.00      0.07      0.01      0.00      0.00      0.00    0.0751
  2024                68.93     99.00      0.00      0.00      0.00      0.00      0.00    3.0544
  2025                20.93     99.00     -0.22      0.03      0.01      0.00      0.00    0.0311
  2026               124.20     99.00     -0.08      0.01      0.00      0.00      0.00    0.0655
  2027                57.75     99.00     -0.30      0.04      0.03      0.00      0.00    0.0404
  2028                68.38     56.70      0.13      0.05      0.07      0.00      0.00    0.0308
  2030                63.24     56.70     -0.18      0.07      0.19      0.00      0.00    0.0406
  2031                71.04     99.00     -0.34      0.04      0.04      0.00      0.00    0.0396
  2032                70.22     99.00     -0.39      0.05      0.05      0.00      0.00    0.0380
  2034                16.94    144.00     -1.50      0.09      0.09      0.00      0.00    0.0289
  2035                96.31    144.00      0.99      0.06      0.04      0.00      0.00    0.0324
  2037                61.06     99.00      0.29      0.04      0.03      0.00      0.00    0.0395
  2038                39.83     99.00      0.27      0.04      0.02      0.00      0.00    0.0379
  2039                47.51     99.00      0.25      0.03      0.02      0.00      0.00    0.0350
  2040                48.76     99.00      0.25      0.03      0.02      0.00      0.00    0.0350
  2041                63.05     99.00      0.22      0.03      0.01      0.00      0.00    0.0311
  2042                66.40     99.00      0.19      0.03      0.01      0.00      0.00    0.0291
  2043                57.82     99.00     -0.18      0.02      0.01      0.00      0.00    0.0292
  2045                16.87     99.00     -0.37      0.05      0.05      0.00      0.00    0.0387
  2046                38.81     99.00     -0.55      0.07      0.09      0.00      0.00    0.0344
  2047                24.90     99.00     -0.40      0.05      0.05      0.00      0.00    0.0378
  2048               102.95     99.00     -0.49      0.06      0.08      0.00      0.00    0.0355
  2051                12.49     56.70      0.08      0.03      0.03      0.00      0.00    0.0354
  2052                46.89    144.00     -0.61      0.04      0.02      0.00      0.00    0.0373
  2053                18.59    153.00      0.00      0.00      0.00      0.00      0.00    0.0000
  2054                56.06    144.00     -0.61      0.04      0.02      0.00      0.00    0.0372
  2055                30.20    144.00     -0.76      0.05      0.03      0.00      0.00    0.0349
  2056                76.84     56.70     -0.08      0.03      0.03      0.00      0.00    0.0348
  2059                23.75     99.00     -0.16      0.02      0.01      0.00      0.00    0.0324
  2060                43.25     99.00     -0.17      0.02      0.01      0.00      0.00    0.0309
  2061               136.50     99.00     -0.18      0.02      0.01      0.00      0.00    0.0294
  2062                72.74     56.70      0.00      0.00      0.00      0.00      0.00    1.0682
  2063                86.15     56.70     -0.05      0.02      0.02      0.00      0.00    0.0553
  2064                14.75     56.70     -0.14      0.05      0.09      0.00      0.00    0.0330
  2065                71.33     56.70     -0.18      0.07      0.19      0.00      0.00    0.0407
  2066                65.82    153.00     -0.76      0.04      0.02      0.00      0.00    0.0356
  2067                46.86    153.00     -0.95      0.05      0.03      0.00      0.00    0.0332
  2068                 1.78    153.00     -0.99      0.05      0.03      0.00      0.00    0.0353
  2069                 1.92    153.00      2.34      0.13      0.14      0.00      0.00    0.0265
  2070                31.14    153.00      1.55      0.08      0.07      0.00      0.00    0.0291
  2071               111.77    153.00      1.52      0.08      0.07      0.00      0.00    0.0293
  2072                53.09     56.70      0.04      0.02      0.02      0.00      0.00    0.0693
  2073                98.22     56.70     -0.02      0.01      0.01      0.00      0.00    0.1252
  2074                33.99     56.70     -0.10      0.04      0.04      0.00      0.00    0.0299
  2076                13.38     99.00      0.63      0.08      0.11      0.00      0.00    0.0331
  2078                78.48     56.70     -0.05      0.02      0.02      0.00      0.00    0.0609
  2079                70.45     56.70      0.00      0.00      0.00      0.00      0.00    0.0000
  2080                55.82     56.70     -0.04      0.01      0.02      0.00      0.00    0.0784
  2081                37.12     56.70     -0.07      0.03      0.03      0.00      0.00    0.0445
  2082                37.90     56.70      0.03      0.01      0.01      0.00      0.00    0.0967
  2083               120.40     56.70     -0.16      0.06      0.13      0.00      0.00    0.0380
  2084                27.02     99.00     -0.24      0.03      0.02      0.00      0.00    0.0328
  20851               99.54     99.00      0.19      0.02      0.01      0.00      0.00    0.0291
  20861               12.55     99.00      0.12      0.02      0.01      0.00      0.00    0.0438
  2087               112.62     99.00      0.43      0.06      0.06      0.00      0.00    0.0371
  2088               881.12     56.70     -0.07      0.03      0.03      0.00      0.00    0.0402
  2089                11.85    153.00      0.08      0.00      0.00      0.00      0.00    0.1417
  2092                13.52    204.00      3.36      0.10      0.07      0.00      0.00    0.0256
  2093                90.64     56.70     -0.14      0.05      0.09      0.00      0.00    0.0329
  2094                20.22     99.00      0.00      0.00      0.00      0.00      0.00    0.0000
  2095                36.66    153.00      0.08      0.00      0.00      0.00      0.00    0.1145
  2096                 8.58     99.00     -0.19      0.02      0.01      0.00      0.00    0.0289
  2097                67.20     99.00     -0.19      0.02      0.01      0.00      0.00    0.0291
  2098                 3.58     56.70     -0.07      0.03      0.03      0.00      0.00    0.0404
  2099                 3.24     56.70      0.03      0.01      0.01      0.00      0.00    0.1060
  2100                81.78    153.00     -0.99      0.05      0.03      0.00      0.00    0.0329
  2101                60.45    153.00      2.34      0.13      0.14      0.00      0.00    0.0262
  2102                 2.55     99.00     -0.55      0.07      0.09      0.00      0.00    0.0339
  2103                 2.99     99.00     -0.37      0.05      0.05      0.00      0.00    0.0390
  2104                 2.70     99.00      0.29      0.04      0.03      0.00      0.00    0.0411
  2105                 3.22     99.00      0.18      0.02      0.01      0.00      0.00    0.0299
  2106                 3.32     99.00     -0.08      0.01      0.00      0.00      0.00    0.0808
  2107                 3.52     99.00     -0.50      0.06      0.08      0.00      0.00    0.0353
  2108                 3.73    144.00      0.99      0.06      0.04      0.00      0.00    0.0315
  2202                21.46     99.00     -0.19      0.02      0.01      0.00      0.00    0.0289
  2205                24.32    144.00      0.00      0.00      0.00      0.00      0.00    0.0000
  2207                10.52     99.00     16.92      2.20     38.85      0.00      0.00    0.0156
  2208                14.95    153.00     -0.00      0.00      0.00      0.00      0.00    0.0000
  2213                 2.35     99.00     -0.75      0.10      0.16      0.00      0.00    0.0316
  2214                 5.04     99.00      0.18      0.02      0.01      0.00      0.00    0.0299
  2215                 3.24     56.70     -0.10      0.04      0.04      0.00      0.00    0.0302
  2216                 3.43     99.00      0.63      0.08      0.11      0.00      0.00    0.0332
  2217                 1.67     99.00     -0.10      0.01      0.00      0.00      0.00    0.0328
  2218                 2.37     99.00      0.11      0.01      0.00      0.00      0.00    0.0394
  2219                 1.90     56.70      0.08      0.03      0.03      0.00      0.00    0.0358
  2220                 5.00     56.70      0.00      0.00      0.00      0.00      0.00    0.0000
  1105_n2a1            0.00    304.80      0.00      0.00      0.00      1.00      0.00    0.0000  Pump
  113951_n2a           0.00    609.60      7.14      0.00    -65.35      1.00      0.00    0.0000  Pump
  1105_n2a             0.00    914.40     16.92      0.00    -18.96      1.00      0.00    0.0000  Pump
  1083_n2a             0.00    100.00      0.08      0.01     19.34     30.00      0.00    0.0000  PRV
  1107_n2a             0.00    100.00      0.00      0.00      0.00      0.00      0.00    0.0000  FCV
   
  Analysis ended Sun Oct 04 18:05:47 2020
